
     RDKit          3D

 49 52  0  0  0  0  0  0  0  0999 V2000
   -0.3102    6.7098   -0.0539 C   0  0  0  0  0  0  0  0  0  0  0  0
    0.5652    5.5960   -0.1922 O   0  0  0  0  0  0  0  0  0  0  0  0
   -0.0217    4.3562   -0.2353 C   0  0  0  0  0  0  0  0  0  0  0  0
   -1.3843    4.0922   -0.1651 C   0  0  0  0  0  0  0  0  0  0  0  0
   -1.8412    2.7716   -0.2313 C   0  0  0  0  0  0  0  0  0  0  0  0
   -0.9523    1.6820   -0.3669 C   0  0  0  0  0  0  0  0  0  0  0  0
    0.4336    1.9474   -0.4137 C   0  0  0  0  0  0  0  0  0  0  0  0
    0.8715    3.2822   -0.3616 C   0  0  0  0  0  0  0  0  0  0  0  0
    2.2186    3.5589   -0.4359 O   0  0  0  0  0  0  0  0  0  0  0  0
    1.4410    0.8811   -0.5221 C   0  0  0  0  0  0  0  0  0  0  0  0
    1.7394    0.0813    0.5136 C   0  0  0  0  0  0  0  0  0  0  0  0
    2.7388   -0.9905    0.4510 C   0  0  0  0  0  0  0  0  0  0  0  0
    3.9706   -0.8207   -0.1971 C   0  0  0  0  0  0  0  0  0  0  0  0
    4.9131   -1.8535   -0.2183 C   0  0  0  0  0  0  0  0  0  0  0  0
    4.6240   -3.0637    0.4235 C   0  0  0  0  0  0  0  0  0  0  0  0
    3.4045   -3.2424    1.0880 C   0  0  0  0  0  0  0  0  0  0  0  0
    2.4703   -2.2022    1.1032 C   0  0  0  0  0  0  0  0  0  0  0  0
    5.6088   -4.1523    0.4038 N   0  0  0  0  0  4  0  0  0  0  0  0
    6.6745   -3.9560   -0.1979 O   0  0  0  0  0  1  0  0  0  0  0  0
    5.3164   -5.2055    0.9883 O   0  0  0  0  0  0  0  0  0  0  0  0
   -1.5144    0.2698   -0.4519 C   0  0  0  0  0  0  0  0  0  0  0  0
   -2.6668    0.2879   -1.2998 O   0  0  0  0  0  0  0  0  0  0  0  0
   -3.0202   -1.0247   -1.7195 C   0  0  0  0  0  0  0  0  0  0  0  0
   -3.4216   -1.9300   -0.5835 C   0  0  0  0  0  0  0  0  0  0  0  0
   -2.9825   -1.7248    0.7332 C   0  0  0  0  0  0  0  0  0  0  0  0
   -1.9429   -0.3560    1.2056 S   0  0  0  0  0  0  0  0  0  0  0  0
   -3.3755   -2.6162    1.7415 C   0  0  0  0  0  0  0  0  0  0  0  0
   -4.1838   -3.7146    1.4473 C   0  0  0  0  0  0  0  0  0  0  0  0
   -4.6070   -3.9321    0.1408 C   0  0  0  0  0  0  0  0  0  0  0  0
   -4.2263   -3.0483   -0.8686 C   0  0  0  0  0  0  0  0  0  0  0  0
   -0.8655    6.6607    0.8885 H   0  0  0  0  0  0  0  0  0  0  0  0
    0.3036    7.6154   -0.0318 H   0  0  0  0  0  0  0  0  0  0  0  0
   -0.9878    6.7876   -0.9106 H   0  0  0  0  0  0  0  0  0  0  0  0
   -2.1220    4.8809   -0.0643 H   0  0  0  0  0  0  0  0  0  0  0  0
   -2.9144    2.5855   -0.1821 H   0  0  0  0  0  0  0  0  0  0  0  0
    2.2795    4.5308   -0.3588 H   0  0  0  0  0  0  0  0  0  0  0  0
    1.9461    0.8115   -1.4811 H   0  0  0  0  0  0  0  0  0  0  0  0
    1.2249    0.1957    1.4657 H   0  0  0  0  0  0  0  0  0  0  0  0
    4.2125    0.1244   -0.6807 H   0  0  0  0  0  0  0  0  0  0  0  0
    5.8601   -1.6944   -0.7298 H   0  0  0  0  0  0  0  0  0  0  0  0
    3.1669   -4.1745    1.5964 H   0  0  0  0  0  0  0  0  0  0  0  0
    1.5246   -2.3478    1.6234 H   0  0  0  0  0  0  0  0  0  0  0  0
   -0.7710   -0.3962   -0.9036 H   0  0  0  0  0  0  0  0  0  0  0  0
   -2.1955   -1.4724   -2.2875 H   0  0  0  0  0  0  0  0  0  0  0  0
   -3.8670   -0.9086   -2.4052 H   0  0  0  0  0  0  0  0  0  0  0  0
   -3.0528   -2.4612    2.7690 H   0  0  0  0  0  0  0  0  0  0  0  0
   -4.4807   -4.3979    2.2387 H   0  0  0  0  0  0  0  0  0  0  0  0
   -5.2348   -4.7885   -0.0927 H   0  0  0  0  0  0  0  0  0  0  0  0
   -4.5662   -3.2341   -1.8859 H   0  0  0  0  0  0  0  0  0  0  0  0
  1  2  1  0
  2  3  1  0
  3  4  2  0
  4  5  1  0
  5  6  2  0
  6  7  1  0
  7  8  2  0
  8  9  1  0
  7 10  1  0
 10 11  2  3
 11 12  1  0
 12 13  2  0
 13 14  1  0
 14 15  2  0
 15 16  1  0
 16 17  2  0
 15 18  1  0
 18 19  1  0
 18 20  2  0
  6 21  1  0
 21 22  1  0
 22 23  1  0
 23 24  1  0
 24 25  2  0
 25 26  1  0
 25 27  1  0
 27 28  2  0
 28 29  1  0
 29 30  2  0
  8  3  1  0
 17 12  1  0
 26 21  1  0
 30 24  1  0
  1 31  1  0
  1 32  1  0
  1 33  1  0
  4 34  1  0
  5 35  1  0
  9 36  1  0
 10 37  1  0
 11 38  1  0
 13 39  1  0
 14 40  1  0
 16 41  1  0
 17 42  1  0
 21 43  1  0
 23 44  1  0
 23 45  1  0
 27 46  1  0
 28 47  1  0
 29 48  1  0
 30 49  1  0
M  CHG  2  18   1  19  -1
M  END
