
     RDKit          3D

 52 55  0  0  0  0  0  0  0  0999 V2000
   -1.8575   -6.7356   -1.8905 C   0  0  0  0  0  0  0  0  0  0  0  0
   -0.7021   -5.9050   -1.8591 O   0  0  0  0  0  0  0  0  0  0  0  0
   -0.8783   -4.6259   -1.3936 C   0  0  0  0  0  0  0  0  0  0  0  0
   -2.0755   -4.0728   -0.9523 C   0  0  0  0  0  0  0  0  0  0  0  0
   -2.1104   -2.7456   -0.5098 C   0  0  0  0  0  0  0  0  0  0  0  0
   -0.9509   -1.9423   -0.4837 C   0  0  0  0  0  0  0  0  0  0  0  0
    0.2681   -2.5052   -0.9330 C   0  0  0  0  0  0  0  0  0  0  0  0
    0.2795   -3.8346   -1.3847 C   0  0  0  0  0  0  0  0  0  0  0  0
    1.4542   -4.3891   -1.8403 O   0  0  0  0  0  0  0  0  0  0  0  0
    1.5133   -1.7237   -0.9776 C   0  0  0  0  0  0  0  0  0  0  0  0
    2.1645   -1.3506    0.1351 C   0  0  0  0  0  0  0  0  0  0  0  0
    3.3464   -0.4258    0.1375 C   0  0  0  0  0  0  0  0  0  0  0  0
    2.9200    0.9719    0.5365 C   0  0  0  0  0  0  0  0  0  0  0  0
    2.5150    1.8910   -0.4457 C   0  0  0  0  0  0  0  0  0  0  0  0
    2.0472    3.1567   -0.0871 C   0  0  0  0  0  0  0  0  0  0  0  0
    1.9730    3.5019    1.2661 C   0  0  0  0  0  0  0  0  0  0  0  0
    2.3707    2.5977    2.2589 C   0  0  0  0  0  0  0  0  0  0  0  0
    2.8430    1.3357    1.8899 C   0  0  0  0  0  0  0  0  0  0  0  0
    1.4664    4.8219    1.6502 N   0  0  0  0  0  4  0  0  0  0  0  0
    1.0991    4.9766    2.8249 O   0  0  0  0  0  1  0  0  0  0  0  0
    1.4417    5.7070    0.7826 O   0  0  0  0  0  0  0  0  0  0  0  0
   -1.0492   -0.4894   -0.0331 C   0  0  0  0  0  0  0  0  0  0  0  0
   -2.0944   -0.3378    0.9326 O   0  0  0  0  0  0  0  0  0  0  0  0
   -1.9271    0.8623    1.6828 C   0  0  0  0  0  0  0  0  0  0  0  0
   -1.9015    2.1220    0.8509 C   0  0  0  0  0  0  0  0  0  0  0  0
   -1.6510    2.1159   -0.5307 C   0  0  0  0  0  0  0  0  0  0  0  0
   -1.3454    0.6167   -1.4462 S   0  0  0  0  0  0  0  0  0  0  0  0
   -1.6269    3.3257   -1.2379 C   0  0  0  0  0  0  0  0  0  0  0  0
   -1.8253    4.5388   -0.5791 C   0  0  0  0  0  0  0  0  0  0  0  0
   -2.0542    4.5528    0.7923 C   0  0  0  0  0  0  0  0  0  0  0  0
   -2.0906    3.3537    1.5033 C   0  0  0  0  0  0  0  0  0  0  0  0
   -2.2592   -6.8908   -0.8838 H   0  0  0  0  0  0  0  0  0  0  0  0
   -2.6188   -6.3275   -2.5633 H   0  0  0  0  0  0  0  0  0  0  0  0
   -1.5559   -7.7117   -2.2825 H   0  0  0  0  0  0  0  0  0  0  0  0
   -3.0032   -4.6349   -0.9443 H   0  0  0  0  0  0  0  0  0  0  0  0
   -3.0638   -2.3282   -0.1862 H   0  0  0  0  0  0  0  0  0  0  0  0
    1.2190   -5.3026   -2.0932 H   0  0  0  0  0  0  0  0  0  0  0  0
    1.8507   -1.4325   -1.9686 H   0  0  0  0  0  0  0  0  0  0  0  0
    1.8068   -1.6796    1.1088 H   0  0  0  0  0  0  0  0  0  0  0  0
    4.1061   -0.8014    0.8337 H   0  0  0  0  0  0  0  0  0  0  0  0
    3.8306   -0.3964   -0.8468 H   0  0  0  0  0  0  0  0  0  0  0  0
    2.5444    1.6150   -1.4987 H   0  0  0  0  0  0  0  0  0  0  0  0
    1.7296    3.8477   -0.8650 H   0  0  0  0  0  0  0  0  0  0  0  0
    2.3164    2.8583    3.3137 H   0  0  0  0  0  0  0  0  0  0  0  0
    3.1391    0.6298    2.6639 H   0  0  0  0  0  0  0  0  0  0  0  0
   -0.1139   -0.2015    0.4523 H   0  0  0  0  0  0  0  0  0  0  0  0
   -2.7727    0.9095    2.3781 H   0  0  0  0  0  0  0  0  0  0  0  0
   -1.0107    0.7926    2.2818 H   0  0  0  0  0  0  0  0  0  0  0  0
   -1.4451    3.3325   -2.3107 H   0  0  0  0  0  0  0  0  0  0  0  0
   -1.7947    5.4725   -1.1355 H   0  0  0  0  0  0  0  0  0  0  0  0
   -2.1989    5.4984    1.3101 H   0  0  0  0  0  0  0  0  0  0  0  0
   -2.2677    3.3860    2.5771 H   0  0  0  0  0  0  0  0  0  0  0  0
  1  2  1  0
  2  3  1  0
  3  4  2  0
  4  5  1  0
  5  6  2  0
  6  7  1  0
  7  8  2  0
  8  9  1  0
  7 10  1  0
 10 11  2  3
 11 12  1  0
 12 13  1  0
 13 14  2  0
 14 15  1  0
 15 16  2  0
 16 17  1  0
 17 18  2  0
 16 19  1  0
 19 20  1  0
 19 21  2  0
  6 22  1  0
 22 23  1  0
 23 24  1  0
 24 25  1  0
 25 26  2  0
 26 27  1  0
 26 28  1  0
 28 29  2  0
 29 30  1  0
 30 31  2  0
  8  3  1  0
 18 13  1  0
 27 22  1  0
 31 25  1  0
  1 32  1  0
  1 33  1  0
  1 34  1  0
  4 35  1  0
  5 36  1  0
  9 37  1  0
 10 38  1  0
 11 39  1  0
 12 40  1  0
 12 41  1  0
 14 42  1  0
 15 43  1  0
 17 44  1  0
 18 45  1  0
 22 46  1  0
 24 47  1  0
 24 48  1  0
 28 49  1  0
 29 50  1  0
 30 51  1  0
 31 52  1  0
M  CHG  2  19   1  20  -1
M  END
