
     RDKit          3D

 35 37  0  0  0  0  0  0  0  0999 V2000
    5.8862   -0.3638   -1.0052 C   0  0  0  0  0  0  0  0  0  0  0  0
    5.0715    0.4851   -0.2036 O   0  0  0  0  0  0  0  0  0  0  0  0
    3.7394    0.1740   -0.1299 C   0  0  0  0  0  0  0  0  0  0  0  0
    3.1146   -0.9166   -0.7232 C   0  0  0  0  0  0  0  0  0  0  0  0
    1.7274   -1.0980   -0.5493 C   0  0  0  0  0  0  0  0  0  0  0  0
    1.1447   -2.2625   -1.2028 N   0  0  0  0  0  4  0  0  0  0  0  0
    0.5276   -3.0634   -0.4894 O   0  0  0  0  0  1  0  0  0  0  0  0
    1.3444   -2.3863   -2.4178 O   0  0  0  0  0  0  0  0  0  0  0  0
    0.9307   -0.2113    0.2078 C   0  0  0  0  0  0  0  0  0  0  0  0
    1.5912    0.8876    0.7879 C   0  0  0  0  0  0  0  0  0  0  0  0
    2.9642    1.0622    0.6222 C   0  0  0  0  0  0  0  0  0  0  0  0
    3.5476    2.1482    1.2162 O   0  0  0  0  0  0  0  0  0  0  0  0
   -0.5785   -0.3575    0.3472 C   0  0  0  0  0  0  0  0  0  0  0  0
   -1.0187    0.3346    1.5168 O   0  0  0  0  0  0  0  0  0  0  0  0
   -2.3399   -0.0463    1.8845 C   0  0  0  0  0  0  0  0  0  0  0  0
   -3.3742    0.3146    0.8507 C   0  0  0  0  0  0  0  0  0  0  0  0
   -3.0571    0.4686   -0.5070 C   0  0  0  0  0  0  0  0  0  0  0  0
   -1.3993    0.2988   -1.1401 S   0  0  0  0  0  0  0  0  0  0  0  0
   -4.0703    0.7829   -1.4237 C   0  0  0  0  0  0  0  0  0  0  0  0
   -5.3926    0.9281   -1.0034 C   0  0  0  0  0  0  0  0  0  0  0  0
   -5.7146    0.7600    0.3388 C   0  0  0  0  0  0  0  0  0  0  0  0
   -4.7134    0.4519    1.2595 C   0  0  0  0  0  0  0  0  0  0  0  0
    5.5542   -0.3589   -2.0487 H   0  0  0  0  0  0  0  0  0  0  0  0
    6.9068    0.0300   -0.9778 H   0  0  0  0  0  0  0  0  0  0  0  0
    5.9100   -1.3813   -0.6015 H   0  0  0  0  0  0  0  0  0  0  0  0
    3.6708   -1.6331   -1.3205 H   0  0  0  0  0  0  0  0  0  0  0  0
    1.0393    1.6262    1.3674 H   0  0  0  0  0  0  0  0  0  0  0  0
    4.4935    2.0987    0.9767 H   0  0  0  0  0  0  0  0  0  0  0  0
   -0.8363   -1.4120    0.4733 H   0  0  0  0  0  0  0  0  0  0  0  0
   -2.3757   -1.1216    2.0979 H   0  0  0  0  0  0  0  0  0  0  0  0
   -2.5614    0.4825    2.8183 H   0  0  0  0  0  0  0  0  0  0  0  0
   -3.8362    0.9158   -2.4781 H   0  0  0  0  0  0  0  0  0  0  0  0
   -6.1681    1.1709   -1.7253 H   0  0  0  0  0  0  0  0  0  0  0  0
   -6.7445    0.8696    0.6694 H   0  0  0  0  0  0  0  0  0  0  0  0
   -4.9834    0.3224    2.3060 H   0  0  0  0  0  0  0  0  0  0  0  0
  1  2  1  0
  2  3  1  0
  3  4  2  0
  4  5  1  0
  5  6  1  0
  6  7  1  0
  6  8  2  0
  5  9  2  0
  9 10  1  0
 10 11  2  0
 11 12  1  0
  9 13  1  0
 13 14  1  0
 14 15  1  0
 15 16  1  0
 16 17  2  0
 17 18  1  0
 17 19  1  0
 19 20  2  0
 20 21  1  0
 21 22  2  0
 11  3  1  0
 18 13  1  0
 22 16  1  0
  1 23  1  0
  1 24  1  0
  1 25  1  0
  4 26  1  0
 10 27  1  0
 12 28  1  0
 13 29  1  0
 15 30  1  0
 15 31  1  0
 19 32  1  0
 20 33  1  0
 21 34  1  0
 22 35  1  0
M  CHG  2   6   1   7  -1
M  END
