
     RDKit          3D

 36 38  0  0  0  0  0  0  0  0999 V2000
   -0.8995    4.3546   -0.0399 O   0  0  0  0  0  0  0  0  0  0  0  0
   -0.6554    3.3649    0.9164 N   0  0  0  0  0  0  0  0  0  0  0  0
   -0.9440    2.1752    0.4658 C   0  0  0  0  0  0  0  0  0  0  0  0
   -1.4700    1.8682   -0.9121 C   0  0  0  0  0  0  0  0  0  0  0  0
   -2.3930    0.6844   -0.8766 C   0  0  0  0  0  0  0  0  0  0  0  0
   -3.1594    0.3741   -2.0107 C   0  0  0  0  0  0  0  0  0  0  0  0
   -4.0444   -0.7045   -1.9960 C   0  0  0  0  0  0  0  0  0  0  0  0
   -4.1725   -1.4829   -0.8488 C   0  0  0  0  0  0  0  0  0  0  0  0
   -3.4069   -1.1877    0.2783 C   0  0  0  0  0  0  0  0  0  0  0  0
   -2.5098   -0.1175    0.2616 C   0  0  0  0  0  0  0  0  0  0  0  0
   -1.7933    0.0645    1.4133 O   0  0  0  0  0  0  0  0  0  0  0  0
   -0.6771    0.9569    1.3480 C   0  0  0  0  0  0  0  0  0  0  0  0
    0.6326    0.2533    0.9862 C   0  0  0  0  0  0  0  0  0  0  0  0
    0.6973   -1.1209    0.6978 C   0  0  0  0  0  0  0  0  0  0  0  0
    1.9126   -1.7434    0.3764 C   0  0  0  0  0  0  0  0  0  0  0  0
    3.0908   -1.0028    0.3463 C   0  0  0  0  0  0  0  0  0  0  0  0
    3.0298    0.3605    0.6472 C   0  0  0  0  0  0  0  0  0  0  0  0
    1.8297    0.9872    0.9672 C   0  0  0  0  0  0  0  0  0  0  0  0
    4.1694    1.1190    0.6346 O   0  0  0  0  0  0  0  0  0  0  0  0
    4.3420   -1.4777    0.0498 O   0  0  0  0  0  0  0  0  0  0  0  0
    4.4377   -2.8629   -0.2619 C   0  0  0  0  0  0  0  0  0  0  0  0
   -0.6444    5.1710    0.4306 H   0  0  0  0  0  0  0  0  0  0  0  0
   -2.0152    2.7284   -1.3123 H   0  0  0  0  0  0  0  0  0  0  0  0
   -0.6168    1.6526   -1.5645 H   0  0  0  0  0  0  0  0  0  0  0  0
   -3.0769    0.9809   -2.9103 H   0  0  0  0  0  0  0  0  0  0  0  0
   -4.6384   -0.9325   -2.8775 H   0  0  0  0  0  0  0  0  0  0  0  0
   -4.8661   -2.3193   -0.8311 H   0  0  0  0  0  0  0  0  0  0  0  0
   -3.5040   -1.7982    1.1724 H   0  0  0  0  0  0  0  0  0  0  0  0
   -0.5495    1.3229    2.3757 H   0  0  0  0  0  0  0  0  0  0  0  0
   -0.2014   -1.7345    0.7214 H   0  0  0  0  0  0  0  0  0  0  0  0
    1.8958   -2.8062    0.1596 H   0  0  0  0  0  0  0  0  0  0  0  0
    1.8403    2.0495    1.2026 H   0  0  0  0  0  0  0  0  0  0  0  0
    4.8823    0.4955    0.3949 H   0  0  0  0  0  0  0  0  0  0  0  0
    4.1338   -3.4807    0.5896 H   0  0  0  0  0  0  0  0  0  0  0  0
    3.8563   -3.1072   -1.1570 H   0  0  0  0  0  0  0  0  0  0  0  0
    5.4876   -3.0848   -0.4761 H   0  0  0  0  0  0  0  0  0  0  0  0
  1  2  1  0
  2  3  2  3
  3  4  1  0
  4  5  1  0
  5  6  2  0
  6  7  1  0
  7  8  2  0
  8  9  1  0
  9 10  2  0
 10 11  1  0
 11 12  1  0
 12 13  1  0
 13 14  2  0
 14 15  1  0
 15 16  2  0
 16 17  1  0
 17 18  2  0
 17 19  1  0
 16 20  1  0
 20 21  1  0
 12  3  1  0
 18 13  1  0
 10  5  1  0
  1 22  1  0
  4 23  1  0
  4 24  1  0
  6 25  1  0
  7 26  1  0
  8 27  1  0
  9 28  1  0
 12 29  1  0
 14 30  1  0
 15 31  1  0
 18 32  1  0
 19 33  1  0
 21 34  1  0
 21 35  1  0
 21 36  1  0
M  END
