
     RDKit          3D

 36 38  0  0  0  0  0  0  0  0999 V2000
    5.6873    0.5174    0.3547 C   0  0  0  0  0  0  0  0  0  0  0  0
    4.8454    0.8354   -0.7476 O   0  0  0  0  0  0  0  0  0  0  0  0
    3.5011    0.6334   -0.5689 C   0  0  0  0  0  0  0  0  0  0  0  0
    2.8876    0.1292    0.5755 C   0  0  0  0  0  0  0  0  0  0  0  0
    1.4955   -0.0256    0.6141 C   0  0  0  0  0  0  0  0  0  0  0  0
    0.6950    0.3229   -0.4878 C   0  0  0  0  0  0  0  0  0  0  0  0
    1.3177    0.8314   -1.6349 C   0  0  0  0  0  0  0  0  0  0  0  0
    2.7003    0.9778   -1.6631 C   0  0  0  0  0  0  0  0  0  0  0  0
    3.2714    1.4732   -2.8045 O   0  0  0  0  0  0  0  0  0  0  0  0
   -0.8110    0.1386   -0.4572 C   0  0  0  0  0  0  0  0  0  0  0  0
   -1.2867    0.7610    0.7528 O   0  0  0  0  0  0  0  0  0  0  0  0
   -2.5918    0.4444    1.0172 C   0  0  0  0  0  0  0  0  0  0  0  0
   -3.2446    1.2280    1.9675 C   0  0  0  0  0  0  0  0  0  0  0  0
   -4.5831    0.9790    2.2747 C   0  0  0  0  0  0  0  0  0  0  0  0
   -5.2660   -0.0550    1.6327 C   0  0  0  0  0  0  0  0  0  0  0  0
   -4.6077   -0.8475    0.6910 C   0  0  0  0  0  0  0  0  0  0  0  0
   -3.2670   -0.6070    0.3949 C   0  0  0  0  0  0  0  0  0  0  0  0
   -2.6824   -1.4366   -0.5236 O   0  0  0  0  0  0  0  0  0  0  0  0
   -1.2443   -1.3409   -0.5003 C   0  0  0  0  0  0  0  0  0  0  0  0
   -0.7493   -2.0734   -1.7446 C   0  0  0  0  0  0  0  0  0  0  0  0
    5.6327   -0.5489    0.5977 H   0  0  0  0  0  0  0  0  0  0  0  0
    5.4476    1.1358    1.2260 H   0  0  0  0  0  0  0  0  0  0  0  0
    6.7180    0.7397    0.0622 H   0  0  0  0  0  0  0  0  0  0  0  0
    3.4552   -0.1515    1.4562 H   0  0  0  0  0  0  0  0  0  0  0  0
    1.0330   -0.4130    1.5210 H   0  0  0  0  0  0  0  0  0  0  0  0
    0.7384    1.1145   -2.5099 H   0  0  0  0  0  0  0  0  0  0  0  0
    4.2288    1.5037   -2.6118 H   0  0  0  0  0  0  0  0  0  0  0  0
   -1.2641    0.6898   -1.2937 H   0  0  0  0  0  0  0  0  0  0  0  0
   -2.7143    2.0389    2.4590 H   0  0  0  0  0  0  0  0  0  0  0  0
   -5.0944    1.5946    3.0104 H   0  0  0  0  0  0  0  0  0  0  0  0
   -6.3099   -0.2462    1.8679 H   0  0  0  0  0  0  0  0  0  0  0  0
   -5.1359   -1.6576    0.1960 H   0  0  0  0  0  0  0  0  0  0  0  0
   -0.8940   -1.8803    0.3906 H   0  0  0  0  0  0  0  0  0  0  0  0
    0.3411   -2.1535   -1.7666 H   0  0  0  0  0  0  0  0  0  0  0  0
   -1.1654   -3.0865   -1.7801 H   0  0  0  0  0  0  0  0  0  0  0  0
   -1.0846   -1.5656   -2.6557 H   0  0  0  0  0  0  0  0  0  0  0  0
  1  2  1  0
  2  3  1  0
  3  4  2  0
  4  5  1  0
  5  6  2  0
  6  7  1  0
  7  8  2  0
  8  9  1  0
  6 10  1  0
 10 11  1  0
 11 12  1  0
 12 13  2  0
 13 14  1  0
 14 15  2  0
 15 16  1  0
 16 17  2  0
 17 18  1  0
 18 19  1  0
 19 20  1  0
  8  3  1  0
 19 10  1  0
 17 12  1  0
  1 21  1  0
  1 22  1  0
  1 23  1  0
  4 24  1  0
  5 25  1  0
  7 26  1  0
  9 27  1  0
 10 28  1  0
 13 29  1  0
 14 30  1  0
 15 31  1  0
 16 32  1  0
 19 33  1  0
 20 34  1  0
 20 35  1  0
 20 36  1  0
M  END
