
     RDKit          3D

 31 32  0  0  0  0  0  0  0  0999 V2000
    5.5262   -0.3738   -0.4094 C   0  0  0  0  0  0  0  0  0  0  0  0
    4.3732   -0.4399   -1.2395 O   0  0  0  0  0  0  0  0  0  0  0  0
    3.1621   -0.2619   -0.6307 C   0  0  0  0  0  0  0  0  0  0  0  0
    2.0630   -0.3143   -1.4926 C   0  0  0  0  0  0  0  0  0  0  0  0
    0.7620   -0.1497   -1.0074 C   0  0  0  0  0  0  0  0  0  0  0  0
    0.5509    0.0629    0.3582 C   0  0  0  0  0  0  0  0  0  0  0  0
    1.6516    0.1277    1.2210 C   0  0  0  0  0  0  0  0  0  0  0  0
    2.9519   -0.0375    0.7297 C   0  0  0  0  0  0  0  0  0  0  0  0
   -0.8104    0.2448    0.9327 C   0  0  0  0  0  0  0  0  0  0  0  0
   -0.9643    0.7181    2.0547 O   0  0  0  0  0  0  0  0  0  0  0  0
   -2.0108   -0.1772    0.1871 C   0  0  0  0  0  0  0  0  0  0  0  0
   -2.1889   -1.5449   -0.0684 C   0  0  0  0  0  0  0  0  0  0  0  0
   -3.3564   -1.9904   -0.6904 C   0  0  0  0  0  0  0  0  0  0  0  0
   -4.3533   -1.0797   -1.0407 C   0  0  0  0  0  0  0  0  0  0  0  0
   -4.1830    0.2812   -0.7771 C   0  0  0  0  0  0  0  0  0  0  0  0
   -3.0052    0.7398   -0.1708 C   0  0  0  0  0  0  0  0  0  0  0  0
   -2.8751    2.1923    0.0453 C   0  0  0  0  0  0  0  0  0  0  0  0
   -3.7740    2.9494    0.3581 O   0  0  0  0  0  0  0  0  0  0  0  0
   -1.6471    2.6349   -0.2744 O   0  0  0  0  0  0  0  0  0  0  0  0
    6.4042   -0.5278   -1.0441 H   0  0  0  0  0  0  0  0  0  0  0  0
    5.5162   -1.1688    0.3436 H   0  0  0  0  0  0  0  0  0  0  0  0
    5.6212    0.6124    0.0569 H   0  0  0  0  0  0  0  0  0  0  0  0
    2.2239   -0.4779   -2.5561 H   0  0  0  0  0  0  0  0  0  0  0  0
   -0.0622   -0.1739   -1.7143 H   0  0  0  0  0  0  0  0  0  0  0  0
    1.5013    0.3074    2.2843 H   0  0  0  0  0  0  0  0  0  0  0  0
    3.7731    0.0178    1.4366 H   0  0  0  0  0  0  0  0  0  0  0  0
   -1.4357   -2.2682    0.2365 H   0  0  0  0  0  0  0  0  0  0  0  0
   -3.4982   -3.0515   -0.8847 H   0  0  0  0  0  0  0  0  0  0  0  0
   -5.2689   -1.4299   -1.5127 H   0  0  0  0  0  0  0  0  0  0  0  0
   -4.9682    0.9852   -1.0481 H   0  0  0  0  0  0  0  0  0  0  0  0
   -1.6790    3.5933   -0.0701 H   0  0  0  0  0  0  0  0  0  0  0  0
  1  2  1  0
  2  3  1  0
  3  4  2  0
  4  5  1  0
  5  6  2  0
  6  7  1  0
  7  8  2  0
  6  9  1  0
  9 10  2  0
  9 11  1  0
 11 12  2  0
 12 13  1  0
 13 14  2  0
 14 15  1  0
 15 16  2  0
 16 17  1  0
 17 18  2  0
 17 19  1  0
  8  3  1  0
 16 11  1  0
  1 20  1  0
  1 21  1  0
  1 22  1  0
  4 23  1  0
  5 24  1  0
  7 25  1  0
  8 26  1  0
 12 27  1  0
 13 28  1  0
 14 29  1  0
 15 30  1  0
 19 31  1  0
M  END
