
     RDKit          3D

 27 28  0  0  0  0  0  0  0  0999 V2000
   -0.3800   -1.7465   -1.4615 O   0  0  0  0  0  0  0  0  0  0  0  0
   -0.0700   -0.7715   -0.7832 C   0  0  0  0  0  0  0  0  0  0  0  0
   -1.1407    0.1561   -0.3724 C   0  0  0  0  0  0  0  0  0  0  0  0
   -1.1290    1.4589   -0.8923 C   0  0  0  0  0  0  0  0  0  0  0  0
   -2.1754    2.3350   -0.5992 C   0  0  0  0  0  0  0  0  0  0  0  0
   -3.2414    1.9103    0.1943 C   0  0  0  0  0  0  0  0  0  0  0  0
   -3.2608    0.6102    0.7040 C   0  0  0  0  0  0  0  0  0  0  0  0
   -2.2043   -0.2697    0.4309 C   0  0  0  0  0  0  0  0  0  0  0  0
   -2.2699   -1.6147    1.0306 C   0  0  0  0  0  0  0  0  0  0  0  0
   -3.2766   -2.2811    1.1777 O   0  0  0  0  0  0  0  0  0  0  0  0
   -1.0827   -1.9923    1.5349 O   0  0  0  0  0  0  0  0  0  0  0  0
    1.3499   -0.5081   -0.4218 C   0  0  0  0  0  0  0  0  0  0  0  0
    2.3529   -1.1684   -1.1427 C   0  0  0  0  0  0  0  0  0  0  0  0
    3.6975   -0.9500   -0.8383 C   0  0  0  0  0  0  0  0  0  0  0  0
    4.0456   -0.0774    0.1917 C   0  0  0  0  0  0  0  0  0  0  0  0
    3.0515    0.5730    0.9223 C   0  0  0  0  0  0  0  0  0  0  0  0
    1.7044    0.3578    0.6206 C   0  0  0  0  0  0  0  0  0  0  0  0
   -0.3230    1.7874   -1.5451 H   0  0  0  0  0  0  0  0  0  0  0  0
   -2.1703    3.3438   -1.0064 H   0  0  0  0  0  0  0  0  0  0  0  0
   -4.0635    2.5895    0.4100 H   0  0  0  0  0  0  0  0  0  0  0  0
   -4.0990    0.2841    1.3175 H   0  0  0  0  0  0  0  0  0  0  0  0
   -1.2452   -2.8980    1.8733 H   0  0  0  0  0  0  0  0  0  0  0  0
    2.0888   -1.8555   -1.9445 H   0  0  0  0  0  0  0  0  0  0  0  0
    4.4714   -1.4643   -1.4027 H   0  0  0  0  0  0  0  0  0  0  0  0
    5.0932    0.0892    0.4307 H   0  0  0  0  0  0  0  0  0  0  0  0
    3.3262    1.2427    1.7338 H   0  0  0  0  0  0  0  0  0  0  0  0
    0.9506    0.8592    1.2212 H   0  0  0  0  0  0  0  0  0  0  0  0
  1  2  2  0
  2  3  1  0
  3  4  2  0
  4  5  1  0
  5  6  2  0
  6  7  1  0
  7  8  2  0
  8  9  1  0
  9 10  2  0
  9 11  1  0
  2 12  1  0
 12 13  2  0
 13 14  1  0
 14 15  2  0
 15 16  1  0
 16 17  2  0
  8  3  1  0
 17 12  1  0
  4 18  1  0
  5 19  1  0
  6 20  1  0
  7 21  1  0
 11 22  1  0
 13 23  1  0
 14 24  1  0
 15 25  1  0
 16 26  1  0
 17 27  1  0
M  END
