
     RDKit          3D

 30 31  0  0  0  0  0  0  0  0999 V2000
    4.6605   -1.1430    1.1952 C   0  0  0  0  0  0  0  0  0  0  0  0
    3.2948   -0.9222    0.6143 C   0  0  0  0  0  0  0  0  0  0  0  0
    2.9618   -1.4595   -0.6344 C   0  0  0  0  0  0  0  0  0  0  0  0
    1.6798   -1.2836   -1.1606 C   0  0  0  0  0  0  0  0  0  0  0  0
    0.7137   -0.5700   -0.4427 C   0  0  0  0  0  0  0  0  0  0  0  0
    1.0337   -0.0544    0.8184 C   0  0  0  0  0  0  0  0  0  0  0  0
    2.3176   -0.2327    1.3425 C   0  0  0  0  0  0  0  0  0  0  0  0
   -0.6380   -0.4070   -1.0445 C   0  0  0  0  0  0  0  0  0  0  0  0
   -1.0066   -1.1181   -1.9747 O   0  0  0  0  0  0  0  0  0  0  0  0
   -1.5571    0.6438   -0.5682 C   0  0  0  0  0  0  0  0  0  0  0  0
   -1.1845    1.9847   -0.7442 C   0  0  0  0  0  0  0  0  0  0  0  0
   -2.0686    3.0053   -0.3902 C   0  0  0  0  0  0  0  0  0  0  0  0
   -3.3286    2.6930    0.1206 C   0  0  0  0  0  0  0  0  0  0  0  0
   -3.7061    1.3587    0.2867 C   0  0  0  0  0  0  0  0  0  0  0  0
   -2.8168    0.3278   -0.0476 C   0  0  0  0  0  0  0  0  0  0  0  0
   -3.2644   -1.0567    0.1878 C   0  0  0  0  0  0  0  0  0  0  0  0
   -4.3939   -1.4779    0.0260 O   0  0  0  0  0  0  0  0  0  0  0  0
   -2.2954   -1.8043    0.7431 O   0  0  0  0  0  0  0  0  0  0  0  0
    4.6748   -2.0708    1.7753 H   0  0  0  0  0  0  0  0  0  0  0  0
    4.9457   -0.3119    1.8488 H   0  0  0  0  0  0  0  0  0  0  0  0
    5.4154   -1.2077    0.4045 H   0  0  0  0  0  0  0  0  0  0  0  0
    3.6969   -2.0219   -1.2062 H   0  0  0  0  0  0  0  0  0  0  0  0
    1.4367   -1.7080   -2.1331 H   0  0  0  0  0  0  0  0  0  0  0  0
    0.2959    0.4699    1.4193 H   0  0  0  0  0  0  0  0  0  0  0  0
    2.5489    0.1649    2.3288 H   0  0  0  0  0  0  0  0  0  0  0  0
   -0.2202    2.2390   -1.1792 H   0  0  0  0  0  0  0  0  0  0  0  0
   -1.7829    4.0455   -0.5315 H   0  0  0  0  0  0  0  0  0  0  0  0
   -4.0222    3.4891    0.3825 H   0  0  0  0  0  0  0  0  0  0  0  0
   -4.6933    1.1225    0.6804 H   0  0  0  0  0  0  0  0  0  0  0  0
   -2.6975   -2.6949    0.8219 H   0  0  0  0  0  0  0  0  0  0  0  0
  1  2  1  0
  2  3  2  0
  3  4  1  0
  4  5  2  0
  5  6  1  0
  6  7  2  0
  5  8  1  0
  8  9  2  0
  8 10  1  0
 10 11  2  0
 11 12  1  0
 12 13  2  0
 13 14  1  0
 14 15  2  0
 15 16  1  0
 16 17  2  0
 16 18  1  0
  7  2  1  0
 15 10  1  0
  1 19  1  0
  1 20  1  0
  1 21  1  0
  3 22  1  0
  4 23  1  0
  6 24  1  0
  7 25  1  0
 11 26  1  0
 12 27  1  0
 13 28  1  0
 14 29  1  0
 18 30  1  0
M  END
