
     RDKit          3D

 34 35  0  0  0  0  0  0  0  0999 V2000
    6.1548   -0.1571    0.8302 C   0  0  0  0  0  0  0  0  0  0  0  0
    4.8724    0.5535    0.4359 C   0  0  0  0  0  0  0  0  0  0  0  0
    3.7916   -0.3619    0.6079 O   0  0  0  0  0  0  0  0  0  0  0  0
    2.5371    0.0929    0.3112 C   0  0  0  0  0  0  0  0  0  0  0  0
    1.5160   -0.8387    0.5188 C   0  0  0  0  0  0  0  0  0  0  0  0
    0.1820   -0.5118    0.2563 C   0  0  0  0  0  0  0  0  0  0  0  0
   -0.1400    0.7596   -0.2277 C   0  0  0  0  0  0  0  0  0  0  0  0
    0.8805    1.6977   -0.4248 C   0  0  0  0  0  0  0  0  0  0  0  0
    2.2141    1.3650   -0.1599 C   0  0  0  0  0  0  0  0  0  0  0  0
   -1.5411    1.1649   -0.5254 C   0  0  0  0  0  0  0  0  0  0  0  0
   -1.8415    2.3474   -0.6599 O   0  0  0  0  0  0  0  0  0  0  0  0
   -2.6000    0.1550   -0.7088 C   0  0  0  0  0  0  0  0  0  0  0  0
   -2.5087   -0.7133   -1.8067 C   0  0  0  0  0  0  0  0  0  0  0  0
   -3.5378   -1.6206   -2.0639 C   0  0  0  0  0  0  0  0  0  0  0  0
   -4.6645   -1.6514   -1.2420 C   0  0  0  0  0  0  0  0  0  0  0  0
   -4.7628   -0.7801   -0.1549 C   0  0  0  0  0  0  0  0  0  0  0  0
   -3.7250    0.1206    0.1225 C   0  0  0  0  0  0  0  0  0  0  0  0
   -3.8769    0.9861    1.3062 C   0  0  0  0  0  0  0  0  0  0  0  0
   -4.9159    1.4834    1.6966 O   0  0  0  0  0  0  0  0  0  0  0  0
   -2.7357    1.0701    2.0110 O   0  0  0  0  0  0  0  0  0  0  0  0
    7.0181    0.5044    0.7158 H   0  0  0  0  0  0  0  0  0  0  0  0
    6.1038   -0.4955    1.8705 H   0  0  0  0  0  0  0  0  0  0  0  0
    6.3075   -1.0482    0.2123 H   0  0  0  0  0  0  0  0  0  0  0  0
    4.7359    1.4292    1.0808 H   0  0  0  0  0  0  0  0  0  0  0  0
    4.9439    0.8645   -0.6127 H   0  0  0  0  0  0  0  0  0  0  0  0
    1.7629   -1.8284    0.8970 H   0  0  0  0  0  0  0  0  0  0  0  0
   -0.5832   -1.2570    0.4535 H   0  0  0  0  0  0  0  0  0  0  0  0
    0.6410    2.6960   -0.7874 H   0  0  0  0  0  0  0  0  0  0  0  0
    2.9705    2.1239   -0.3305 H   0  0  0  0  0  0  0  0  0  0  0  0
   -1.6531   -0.6705   -2.4773 H   0  0  0  0  0  0  0  0  0  0  0  0
   -3.4708   -2.2913   -2.9180 H   0  0  0  0  0  0  0  0  0  0  0  0
   -5.4723   -2.3494   -1.4519 H   0  0  0  0  0  0  0  0  0  0  0  0
   -5.6479   -0.8061    0.4785 H   0  0  0  0  0  0  0  0  0  0  0  0
   -2.9548    1.6797    2.7469 H   0  0  0  0  0  0  0  0  0  0  0  0
  1  2  1  0
  2  3  1  0
  3  4  1  0
  4  5  2  0
  5  6  1  0
  6  7  2  0
  7  8  1  0
  8  9  2  0
  7 10  1  0
 10 11  2  0
 10 12  1  0
 12 13  2  0
 13 14  1  0
 14 15  2  0
 15 16  1  0
 16 17  2  0
 17 18  1  0
 18 19  2  0
 18 20  1  0
  9  4  1  0
 17 12  1  0
  1 21  1  0
  1 22  1  0
  1 23  1  0
  2 24  1  0
  2 25  1  0
  5 26  1  0
  6 27  1  0
  8 28  1  0
  9 29  1  0
 13 30  1  0
 14 31  1  0
 15 32  1  0
 16 33  1  0
 20 34  1  0
M  END
