
     RDKit          3D

 37 38  0  0  0  0  0  0  0  0999 V2000
    6.0047   -0.0760    1.1535 C   0  0  0  0  0  0  0  0  0  0  0  0
    5.6805    0.1078   -0.3224 C   0  0  0  0  0  0  0  0  0  0  0  0
    4.2861    0.6909   -0.5434 C   0  0  0  0  0  0  0  0  0  0  0  0
    3.3163   -0.2363   -0.0562 O   0  0  0  0  0  0  0  0  0  0  0  0
    2.0020    0.1262   -0.1534 C   0  0  0  0  0  0  0  0  0  0  0  0
    1.1020   -0.8003    0.3806 C   0  0  0  0  0  0  0  0  0  0  0  0
   -0.2755   -0.5624    0.3498 C   0  0  0  0  0  0  0  0  0  0  0  0
   -0.7655    0.6121   -0.2288 C   0  0  0  0  0  0  0  0  0  0  0  0
    0.1355    1.5462   -0.7540 C   0  0  0  0  0  0  0  0  0  0  0  0
    1.5136    1.3029   -0.7201 C   0  0  0  0  0  0  0  0  0  0  0  0
   -2.2207    0.9200   -0.2909 C   0  0  0  0  0  0  0  0  0  0  0  0
   -2.6159    2.0588   -0.5225 O   0  0  0  0  0  0  0  0  0  0  0  0
   -3.2286   -0.1424   -0.1176 C   0  0  0  0  0  0  0  0  0  0  0  0
   -3.2972   -1.1586   -1.0821 C   0  0  0  0  0  0  0  0  0  0  0  0
   -4.2968   -2.1294   -1.0005 C   0  0  0  0  0  0  0  0  0  0  0  0
   -5.2383   -2.0789    0.0277 C   0  0  0  0  0  0  0  0  0  0  0  0
   -5.1788   -1.0615    0.9827 C   0  0  0  0  0  0  0  0  0  0  0  0
   -4.1663   -0.0940    0.9198 C   0  0  0  0  0  0  0  0  0  0  0  0
   -4.1402    0.9298    1.9802 C   0  0  0  0  0  0  0  0  0  0  0  0
   -5.1131    1.4423    2.4999 O   0  0  0  0  0  0  0  0  0  0  0  0
   -2.8916    1.1562    2.4227 O   0  0  0  0  0  0  0  0  0  0  0  0
    7.0199   -0.4684    1.2704 H   0  0  0  0  0  0  0  0  0  0  0  0
    5.3151   -0.7807    1.6285 H   0  0  0  0  0  0  0  0  0  0  0  0
    5.9456    0.8770    1.6887 H   0  0  0  0  0  0  0  0  0  0  0  0
    6.4264    0.7698   -0.7759 H   0  0  0  0  0  0  0  0  0  0  0  0
    5.7533   -0.8673   -0.8180 H   0  0  0  0  0  0  0  0  0  0  0  0
    4.2013    1.6471   -0.0130 H   0  0  0  0  0  0  0  0  0  0  0  0
    4.1405    0.8494   -1.6186 H   0  0  0  0  0  0  0  0  0  0  0  0
    1.4801   -1.7145    0.8331 H   0  0  0  0  0  0  0  0  0  0  0  0
   -0.9390   -1.2970    0.7970 H   0  0  0  0  0  0  0  0  0  0  0  0
   -0.2328    2.4713   -1.1947 H   0  0  0  0  0  0  0  0  0  0  0  0
    2.1725    2.0539   -1.1431 H   0  0  0  0  0  0  0  0  0  0  0  0
   -2.5925   -1.1846   -1.9106 H   0  0  0  0  0  0  0  0  0  0  0  0
   -4.3544   -2.9153   -1.7507 H   0  0  0  0  0  0  0  0  0  0  0  0
   -6.0254   -2.8279    0.0821 H   0  0  0  0  0  0  0  0  0  0  0  0
   -5.9207   -1.0254    1.7788 H   0  0  0  0  0  0  0  0  0  0  0  0
   -3.0020    1.8592    3.0972 H   0  0  0  0  0  0  0  0  0  0  0  0
  1  2  1  0
  2  3  1  0
  3  4  1  0
  4  5  1  0
  5  6  2  0
  6  7  1  0
  7  8  2  0
  8  9  1  0
  9 10  2  0
  8 11  1  0
 11 12  2  0
 11 13  1  0
 13 14  2  0
 14 15  1  0
 15 16  2  0
 16 17  1  0
 17 18  2  0
 18 19  1  0
 19 20  2  0
 19 21  1  0
 10  5  1  0
 18 13  1  0
  1 22  1  0
  1 23  1  0
  1 24  1  0
  2 25  1  0
  2 26  1  0
  3 27  1  0
  3 28  1  0
  6 29  1  0
  7 30  1  0
  9 31  1  0
 10 32  1  0
 14 33  1  0
 15 34  1  0
 16 35  1  0
 17 36  1  0
 21 37  1  0
M  END
