
     RDKit          3D

 24 23  0  0  0  0  0  0  0  0999 V2000
   -2.1837    0.3200   -0.2061 C   0  0  0  0  0  0  0  0  0  0  0  0
   -1.4293   -0.9770   -0.4758 C   0  0  0  0  0  0  0  0  0  0  0  0
   -0.3604   -1.2450    0.5844 C   0  0  0  0  0  0  0  0  0  0  0  0
    0.5932   -0.0630    0.8012 C   0  0  0  0  0  0  0  0  0  0  0  0
   -0.1786    1.2458    1.0159 C   0  0  0  0  0  0  0  0  0  0  0  0
   -1.2326    1.5024   -0.0605 C   0  0  0  0  0  0  0  0  0  0  0  0
    1.4843    0.1079   -0.3579 N   0  0  0  0  0  0  0  0  0  0  0  0
    3.0670   -0.4574   -0.1860 S   0  0  0  0  0  6  0  0  0  0  0  0
    3.5851   -0.2089   -1.5226 O   0  0  0  0  0  0  0  0  0  0  0  0
    2.8512   -1.8585    0.1441 O   0  0  0  0  0  0  0  0  0  0  0  0
    3.6016    0.3736    0.8806 O   0  0  0  0  0  1  0  0  0  0  0  0
    0.0000    0.0000    0.0000 Na  0  0  0  0  0 15  0  0  0  0  0  0
   -2.7766    0.2133    0.7106 H   0  0  0  0  0  0  0  0  0  0  0  0
   -2.8898    0.5124   -1.0217 H   0  0  0  0  0  0  0  0  0  0  0  0
   -0.9669   -0.9313   -1.4688 H   0  0  0  0  0  0  0  0  0  0  0  0
   -2.1371   -1.8137   -0.4989 H   0  0  0  0  0  0  0  0  0  0  0  0
   -0.8642   -1.4639    1.5349 H   0  0  0  0  0  0  0  0  0  0  0  0
    0.1959   -2.1486    0.3115 H   0  0  0  0  0  0  0  0  0  0  0  0
    1.1842   -0.2462    1.7065 H   0  0  0  0  0  0  0  0  0  0  0  0
    0.5152    2.0945    1.0533 H   0  0  0  0  0  0  0  0  0  0  0  0
   -0.6788    1.2042    1.9921 H   0  0  0  0  0  0  0  0  0  0  0  0
   -0.7426    1.7003   -1.0215 H   0  0  0  0  0  0  0  0  0  0  0  0
   -1.8034    2.4026    0.1943 H   0  0  0  0  0  0  0  0  0  0  0  0
    1.1663   -0.2635   -1.2454 H   0  0  0  0  0  0  0  0  0  0  0  0
  1  2  1  0
  2  3  1  0
  3  4  1  0
  4  5  1  0
  5  6  1  0
  4  7  1  0
  7  8  1  0
  8  9  2  0
  8 10  2  0
  8 11  1  0
  6  1  1  0
  1 13  1  0
  1 14  1  0
  2 15  1  0
  2 16  1  0
  3 17  1  0
  3 18  1  0
  4 19  1  0
  5 20  1  0
  5 21  1  0
  6 22  1  0
  6 23  1  0
  7 24  1  0
M  CHG  2  11  -1  12   1
M  END
