
     RDKit          3D

 38 40  0  0  0  0  0  0  0  0999 V2000
   -2.6281   -0.1855    2.7619 O   0  0  0  0  0  0  0  0  0  0  0  0
   -2.2445    0.1355    1.6412 C   0  0  0  0  0  0  0  0  0  0  0  0
   -3.2523    0.2628    0.5721 C   0  0  0  0  0  0  0  0  0  0  0  0
   -3.4993    1.5365    0.0388 C   0  0  0  0  0  0  0  0  0  0  0  0
   -4.5087    1.7102   -0.9095 C   0  0  0  0  0  0  0  0  0  0  0  0
   -5.2838    0.6226   -1.3128 C   0  0  0  0  0  0  0  0  0  0  0  0
   -5.0470   -0.6444   -0.7749 C   0  0  0  0  0  0  0  0  0  0  0  0
   -4.0222   -0.8316    0.1632 C   0  0  0  0  0  0  0  0  0  0  0  0
   -3.8024   -2.2010    0.6628 C   0  0  0  0  0  0  0  0  0  0  0  0
   -4.6682   -3.0250    0.8875 O   0  0  0  0  0  0  0  0  0  0  0  0
   -2.4946   -2.5045    0.7258 O   0  0  0  0  0  0  0  0  0  0  0  0
   -0.8087    0.4279    1.3775 C   0  0  0  0  0  0  0  0  0  0  0  0
    0.0301    0.6776    2.4720 C   0  0  0  0  0  0  0  0  0  0  0  0
    1.3837    0.9562    2.2720 C   0  0  0  0  0  0  0  0  0  0  0  0
    1.9079    0.9625    0.9800 C   0  0  0  0  0  0  0  0  0  0  0  0
    1.0767    0.7249   -0.1179 C   0  0  0  0  0  0  0  0  0  0  0  0
   -0.2790    0.4467    0.0804 C   0  0  0  0  0  0  0  0  0  0  0  0
    3.2414    1.2761    0.8483 O   0  0  0  0  0  0  0  0  0  0  0  0
    3.9946    0.4878    0.0081 C   0  0  0  0  0  0  0  0  0  0  0  0
    3.9773   -0.9081    0.0679 C   0  0  0  0  0  0  0  0  0  0  0  0
    4.7926   -1.6479   -0.7898 C   0  0  0  0  0  0  0  0  0  0  0  0
    5.6327   -0.9938   -1.6920 C   0  0  0  0  0  0  0  0  0  0  0  0
    5.6656    0.4005   -1.7332 C   0  0  0  0  0  0  0  0  0  0  0  0
    4.8516    1.1426   -0.8769 C   0  0  0  0  0  0  0  0  0  0  0  0
   -2.9279    2.3988    0.3759 H   0  0  0  0  0  0  0  0  0  0  0  0
   -4.7053    2.6984   -1.3200 H   0  0  0  0  0  0  0  0  0  0  0  0
   -6.0798    0.7621   -2.0412 H   0  0  0  0  0  0  0  0  0  0  0  0
   -5.6602   -1.4870   -1.0901 H   0  0  0  0  0  0  0  0  0  0  0  0
   -2.4807   -3.4148    1.0899 H   0  0  0  0  0  0  0  0  0  0  0  0
   -0.3697    0.6598    3.4844 H   0  0  0  0  0  0  0  0  0  0  0  0
    2.0285    1.1590    3.1231 H   0  0  0  0  0  0  0  0  0  0  0  0
    1.4762    0.7525   -1.1284 H   0  0  0  0  0  0  0  0  0  0  0  0
   -0.8972    0.2358   -0.7878 H   0  0  0  0  0  0  0  0  0  0  0  0
    3.3411   -1.4244    0.7812 H   0  0  0  0  0  0  0  0  0  0  0  0
    4.7784   -2.7340   -0.7493 H   0  0  0  0  0  0  0  0  0  0  0  0
    6.2697   -1.5717   -2.3570 H   0  0  0  0  0  0  0  0  0  0  0  0
    6.3291    0.9088   -2.4280 H   0  0  0  0  0  0  0  0  0  0  0  0
    4.8824    2.2282   -0.9012 H   0  0  0  0  0  0  0  0  0  0  0  0
  1  2  2  0
  2  3  1  0
  3  4  2  0
  4  5  1  0
  5  6  2  0
  6  7  1  0
  7  8  2  0
  8  9  1  0
  9 10  2  0
  9 11  1  0
  2 12  1  0
 12 13  2  0
 13 14  1  0
 14 15  2  0
 15 16  1  0
 16 17  2  0
 15 18  1  0
 18 19  1  0
 19 20  2  0
 20 21  1  0
 21 22  2  0
 22 23  1  0
 23 24  2  0
  8  3  1  0
 17 12  1  0
 24 19  1  0
  4 25  1  0
  5 26  1  0
  6 27  1  0
  7 28  1  0
 11 29  1  0
 13 30  1  0
 14 31  1  0
 16 32  1  0
 17 33  1  0
 20 34  1  0
 21 35  1  0
 22 36  1  0
 23 37  1  0
 24 38  1  0
M  END
