
     RDKit          3D

 28 29  0  0  0  0  0  0  0  0999 V2000
    5.0841   -0.5849    0.4857 O   0  0  0  0  0  0  0  0  0  0  0  0
    3.7876   -0.1653    0.4641 C   0  0  0  0  0  0  0  0  0  0  0  0
    2.8243   -1.0663    0.0236 C   0  0  0  0  0  0  0  0  0  0  0  0
    1.4811   -0.6844   -0.0166 C   0  0  0  0  0  0  0  0  0  0  0  0
    1.1100    0.6072    0.3792 C   0  0  0  0  0  0  0  0  0  0  0  0
    2.0913    1.5008    0.8321 C   0  0  0  0  0  0  0  0  0  0  0  0
    3.4337    1.1164    0.8720 C   0  0  0  0  0  0  0  0  0  0  0  0
   -0.3060    1.0669    0.3562 C   0  0  0  0  0  0  0  0  0  0  0  0
   -0.6537    2.0708    0.9710 O   0  0  0  0  0  0  0  0  0  0  0  0
   -1.3224    0.3539   -0.4396 C   0  0  0  0  0  0  0  0  0  0  0  0
   -1.1924    0.3506   -1.8363 C   0  0  0  0  0  0  0  0  0  0  0  0
   -2.1830   -0.2351   -2.6262 C   0  0  0  0  0  0  0  0  0  0  0  0
   -3.3104   -0.7997   -2.0293 C   0  0  0  0  0  0  0  0  0  0  0  0
   -3.4475   -0.7876   -0.6394 C   0  0  0  0  0  0  0  0  0  0  0  0
   -2.4480   -0.2192    0.1625 C   0  0  0  0  0  0  0  0  0  0  0  0
   -2.6389   -0.2729    1.6234 C   0  0  0  0  0  0  0  0  0  0  0  0
   -3.6986   -0.1537    2.2082 O   0  0  0  0  0  0  0  0  0  0  0  0
   -1.5045   -0.6070    2.2617 O   0  0  0  0  0  0  0  0  0  0  0  0
    5.6388    0.1332    0.8329 H   0  0  0  0  0  0  0  0  0  0  0  0
    3.1182   -2.0675   -0.2803 H   0  0  0  0  0  0  0  0  0  0  0  0
    0.7443   -1.4133   -0.3417 H   0  0  0  0  0  0  0  0  0  0  0  0
    1.8101    2.5017    1.1554 H   0  0  0  0  0  0  0  0  0  0  0  0
    4.1778    1.8242    1.2234 H   0  0  0  0  0  0  0  0  0  0  0  0
   -0.3369    0.8231   -2.3143 H   0  0  0  0  0  0  0  0  0  0  0  0
   -2.0859   -0.2342   -3.7098 H   0  0  0  0  0  0  0  0  0  0  0  0
   -4.0885   -1.2434   -2.6468 H   0  0  0  0  0  0  0  0  0  0  0  0
   -4.3330   -1.2250   -0.1813 H   0  0  0  0  0  0  0  0  0  0  0  0
   -1.7513   -0.5891    3.2104 H   0  0  0  0  0  0  0  0  0  0  0  0
  1  2  1  0
  2  3  2  0
  3  4  1  0
  4  5  2  0
  5  6  1  0
  6  7  2  0
  5  8  1  0
  8  9  2  0
  8 10  1  0
 10 11  2  0
 11 12  1  0
 12 13  2  0
 13 14  1  0
 14 15  2  0
 15 16  1  0
 16 17  2  0
 16 18  1  0
  7  2  1  0
 15 10  1  0
  1 19  1  0
  3 20  1  0
  4 21  1  0
  6 22  1  0
  7 23  1  0
 11 24  1  0
 12 25  1  0
 13 26  1  0
 14 27  1  0
 18 28  1  0
M  END
