
     RDKit          3D

 31 32  0  0  0  0  0  0  0  0999 V2000
    5.5251   -1.1186   -0.2896 C   0  0  0  0  0  0  0  0  0  0  0  0
    4.8986    0.4980   -0.8207 S   0  0  0  0  0  0  0  0  0  0  0  0
    3.2207    0.3876   -0.2278 C   0  0  0  0  0  0  0  0  0  0  0  0
    2.9314    0.1539    1.1190 C   0  0  0  0  0  0  0  0  0  0  0  0
    1.6042    0.0820    1.5534 C   0  0  0  0  0  0  0  0  0  0  0  0
    0.5508    0.2556    0.6473 C   0  0  0  0  0  0  0  0  0  0  0  0
    0.8389    0.4986   -0.7004 C   0  0  0  0  0  0  0  0  0  0  0  0
    2.1688    0.5695   -1.1310 C   0  0  0  0  0  0  0  0  0  0  0  0
   -0.8439    0.1738    1.1640 C   0  0  0  0  0  0  0  0  0  0  0  0
   -1.0821   -0.1453    2.3248 O   0  0  0  0  0  0  0  0  0  0  0  0
   -1.9888    0.5255    0.3092 C   0  0  0  0  0  0  0  0  0  0  0  0
   -2.2869    1.8849    0.1415 C   0  0  0  0  0  0  0  0  0  0  0  0
   -3.4062    2.2622   -0.6007 C   0  0  0  0  0  0  0  0  0  0  0  0
   -4.2330    1.2881   -1.1612 C   0  0  0  0  0  0  0  0  0  0  0  0
   -3.9425   -0.0673   -0.9834 C   0  0  0  0  0  0  0  0  0  0  0  0
   -2.8164   -0.4573   -0.2435 C   0  0  0  0  0  0  0  0  0  0  0  0
   -2.4838   -1.8896   -0.1060 C   0  0  0  0  0  0  0  0  0  0  0  0
   -1.3681   -2.3706   -0.0763 O   0  0  0  0  0  0  0  0  0  0  0  0
   -3.5874   -2.6547   -0.0338 O   0  0  0  0  0  0  0  0  0  0  0  0
    6.5350   -1.2561   -0.6852 H   0  0  0  0  0  0  0  0  0  0  0  0
    4.8900   -1.9217   -0.6737 H   0  0  0  0  0  0  0  0  0  0  0  0
    5.5726   -1.1803    0.8006 H   0  0  0  0  0  0  0  0  0  0  0  0
    3.7290    0.0336    1.8475 H   0  0  0  0  0  0  0  0  0  0  0  0
    1.3957   -0.1080    2.6049 H   0  0  0  0  0  0  0  0  0  0  0  0
    0.0518    0.6255   -1.4378 H   0  0  0  0  0  0  0  0  0  0  0  0
    2.3759    0.7593   -2.1822 H   0  0  0  0  0  0  0  0  0  0  0  0
   -1.6628    2.6475    0.6026 H   0  0  0  0  0  0  0  0  0  0  0  0
   -3.6431    3.3161   -0.7300 H   0  0  0  0  0  0  0  0  0  0  0  0
   -5.1098    1.5839   -1.7334 H   0  0  0  0  0  0  0  0  0  0  0  0
   -4.5958   -0.8154   -1.4279 H   0  0  0  0  0  0  0  0  0  0  0  0
   -3.2379   -3.5608    0.1017 H   0  0  0  0  0  0  0  0  0  0  0  0
  1  2  1  0
  2  3  1  0
  3  4  2  0
  4  5  1  0
  5  6  2  0
  6  7  1  0
  7  8  2  0
  6  9  1  0
  9 10  2  0
  9 11  1  0
 11 12  2  0
 12 13  1  0
 13 14  2  0
 14 15  1  0
 15 16  2  0
 16 17  1  0
 17 18  2  0
 17 19  1  0
  8  3  1  0
 16 11  1  0
  1 20  1  0
  1 21  1  0
  1 22  1  0
  4 23  1  0
  5 24  1  0
  7 25  1  0
  8 26  1  0
 12 27  1  0
 13 28  1  0
 14 29  1  0
 15 30  1  0
 19 31  1  0
M  END
