
     RDKit          3D

 35 36  0  0  0  0  0  0  0  0999 V2000
    1.8751    2.0713   -1.2276 O   0  0  0  0  0  0  0  0  0  0  0  0
    1.5574    0.9868   -0.7482 C   0  0  0  0  0  0  0  0  0  0  0  0
    2.6327    0.0379   -0.4028 C   0  0  0  0  0  0  0  0  0  0  0  0
    2.7165   -1.1644   -1.1207 C   0  0  0  0  0  0  0  0  0  0  0  0
    3.7744   -2.0439   -0.8849 C   0  0  0  0  0  0  0  0  0  0  0  0
    4.7579   -1.7201    0.0501 C   0  0  0  0  0  0  0  0  0  0  0  0
    4.6824   -0.5189    0.7586 C   0  0  0  0  0  0  0  0  0  0  0  0
    3.6127    0.3608    0.5423 C   0  0  0  0  0  0  0  0  0  0  0  0
    3.5737    1.5927    1.3508 C   0  0  0  0  0  0  0  0  0  0  0  0
    4.5360    2.2587    1.6821 O   0  0  0  0  0  0  0  0  0  0  0  0
    2.3367    1.8451    1.8118 O   0  0  0  0  0  0  0  0  0  0  0  0
    0.1276    0.6215   -0.5601 C   0  0  0  0  0  0  0  0  0  0  0  0
   -0.8436    1.3435   -1.2504 C   0  0  0  0  0  0  0  0  0  0  0  0
   -2.2019    1.0257   -1.1034 C   0  0  0  0  0  0  0  0  0  0  0  0
   -2.6460   -0.0035   -0.2538 C   0  0  0  0  0  0  0  0  0  0  0  0
   -1.6388   -0.7122    0.4277 C   0  0  0  0  0  0  0  0  0  0  0  0
   -0.2754   -0.4070    0.2891 C   0  0  0  0  0  0  0  0  0  0  0  0
   -4.0005   -0.3324   -0.1236 N   0  0  0  0  0  0  0  0  0  0  0  0
   -5.0091    0.5730   -0.6728 C   0  0  0  0  0  0  0  0  0  0  0  0
   -4.4269   -1.1206    1.0323 C   0  0  0  0  0  0  0  0  0  0  0  0
    1.9770   -1.4084   -1.8806 H   0  0  0  0  0  0  0  0  0  0  0  0
    3.8433   -2.9740   -1.4450 H   0  0  0  0  0  0  0  0  0  0  0  0
    5.5896   -2.3999    0.2225 H   0  0  0  0  0  0  0  0  0  0  0  0
    5.4566   -0.2704    1.4826 H   0  0  0  0  0  0  0  0  0  0  0  0
    2.4324    2.6899    2.2999 H   0  0  0  0  0  0  0  0  0  0  0  0
   -0.5548    2.1565   -1.9139 H   0  0  0  0  0  0  0  0  0  0  0  0
   -2.9042    1.6200   -1.6802 H   0  0  0  0  0  0  0  0  0  0  0  0
   -1.8892   -1.5333    1.0928 H   0  0  0  0  0  0  0  0  0  0  0  0
    0.4436   -0.9814    0.8661 H   0  0  0  0  0  0  0  0  0  0  0  0
   -4.9624    1.5547   -0.1888 H   0  0  0  0  0  0  0  0  0  0  0  0
   -4.8915    0.6886   -1.7556 H   0  0  0  0  0  0  0  0  0  0  0  0
   -6.0201    0.1772   -0.5230 H   0  0  0  0  0  0  0  0  0  0  0  0
   -3.9870   -2.1233    1.0120 H   0  0  0  0  0  0  0  0  0  0  0  0
   -5.5126   -1.2698    1.0344 H   0  0  0  0  0  0  0  0  0  0  0  0
   -4.1615   -0.6202    1.9702 H   0  0  0  0  0  0  0  0  0  0  0  0
  1  2  2  0
  2  3  1  0
  3  4  2  0
  4  5  1  0
  5  6  2  0
  6  7  1  0
  7  8  2  0
  8  9  1  0
  9 10  2  0
  9 11  1  0
  2 12  1  0
 12 13  2  0
 13 14  1  0
 14 15  2  0
 15 16  1  0
 16 17  2  0
 15 18  1  0
 18 19  1  0
 18 20  1  0
  8  3  1  0
 17 12  1  0
  4 21  1  0
  5 22  1  0
  6 23  1  0
  7 24  1  0
 11 25  1  0
 13 26  1  0
 14 27  1  0
 16 28  1  0
 17 29  1  0
 19 30  1  0
 19 31  1  0
 19 32  1  0
 20 33  1  0
 20 34  1  0
 20 35  1  0
M  END
