
     RDKit          3D

 29 30  0  0  0  0  0  0  0  0999 V2000
   -0.4481    0.1731    2.5481 O   0  0  0  0  0  0  0  0  0  0  0  0
   -0.2906    0.2556    1.3342 C   0  0  0  0  0  0  0  0  0  0  0  0
   -1.4358    0.7116    0.5313 C   0  0  0  0  0  0  0  0  0  0  0  0
   -1.5890    2.0940    0.3560 C   0  0  0  0  0  0  0  0  0  0  0  0
   -2.6876    2.5861   -0.3481 C   0  0  0  0  0  0  0  0  0  0  0  0
   -3.6379    1.7044   -0.8625 C   0  0  0  0  0  0  0  0  0  0  0  0
   -3.4942    0.3270   -0.6728 C   0  0  0  0  0  0  0  0  0  0  0  0
   -2.3910   -0.1805    0.0306 C   0  0  0  0  0  0  0  0  0  0  0  0
   -2.2307   -1.6407    0.2000 C   0  0  0  0  0  0  0  0  0  0  0  0
   -1.1808   -2.2481    0.2739 O   0  0  0  0  0  0  0  0  0  0  0  0
   -3.4159   -2.2737    0.2538 O   0  0  0  0  0  0  0  0  0  0  0  0
    1.0248   -0.0423    0.6987 C   0  0  0  0  0  0  0  0  0  0  0  0
    2.0744   -0.4741    1.5243 C   0  0  0  0  0  0  0  0  0  0  0  0
    3.3293   -0.7711    0.9842 C   0  0  0  0  0  0  0  0  0  0  0  0
    3.5345   -0.6346   -0.3937 C   0  0  0  0  0  0  0  0  0  0  0  0
    2.4945   -0.2030   -1.2287 C   0  0  0  0  0  0  0  0  0  0  0  0
    1.2409    0.0926   -0.6803 C   0  0  0  0  0  0  0  0  0  0  0  0
    4.8493   -0.9453   -0.9698 N   0  0  0  0  0  4  0  0  0  0  0  0
    5.7412   -1.3285   -0.1999 O   0  0  0  0  0  1  0  0  0  0  0  0
    4.9901   -0.8007   -2.1927 O   0  0  0  0  0  0  0  0  0  0  0  0
   -0.8659    2.7867    0.7817 H   0  0  0  0  0  0  0  0  0  0  0  0
   -2.8117    3.6585   -0.4833 H   0  0  0  0  0  0  0  0  0  0  0  0
   -4.4990    2.0897   -1.4048 H   0  0  0  0  0  0  0  0  0  0  0  0
   -4.2480   -0.3456   -1.0775 H   0  0  0  0  0  0  0  0  0  0  0  0
   -3.1798   -3.2133    0.4071 H   0  0  0  0  0  0  0  0  0  0  0  0
    1.9137   -0.5884    2.5960 H   0  0  0  0  0  0  0  0  0  0  0  0
    4.1239   -1.1083    1.6470 H   0  0  0  0  0  0  0  0  0  0  0  0
    2.6404   -0.0972   -2.3022 H   0  0  0  0  0  0  0  0  0  0  0  0
    0.4491    0.4164   -1.3505 H   0  0  0  0  0  0  0  0  0  0  0  0
  1  2  2  0
  2  3  1  0
  3  4  2  0
  4  5  1  0
  5  6  2  0
  6  7  1  0
  7  8  2  0
  8  9  1  0
  9 10  2  0
  9 11  1  0
  2 12  1  0
 12 13  2  0
 13 14  1  0
 14 15  2  0
 15 16  1  0
 16 17  2  0
 15 18  1  0
 18 19  1  0
 18 20  2  0
  8  3  1  0
 17 12  1  0
  4 21  1  0
  5 22  1  0
  6 23  1  0
  7 24  1  0
 11 25  1  0
 13 26  1  0
 14 27  1  0
 16 28  1  0
 17 29  1  0
M  CHG  2  18   1  19  -1
M  END
