
     RDKit          3D

 30 31  0  0  0  0  0  0  0  0999 V2000
   -0.7419   -0.9096    2.3714 O   0  0  0  0  0  0  0  0  0  0  0  0
   -0.5458   -0.6452    1.1893 C   0  0  0  0  0  0  0  0  0  0  0  0
   -1.6707   -0.8288    0.2591 C   0  0  0  0  0  0  0  0  0  0  0  0
   -1.7636   -2.0546   -0.4145 C   0  0  0  0  0  0  0  0  0  0  0  0
   -2.8477   -2.3021   -1.2565 C   0  0  0  0  0  0  0  0  0  0  0  0
   -3.8427   -1.3372   -1.4147 C   0  0  0  0  0  0  0  0  0  0  0  0
   -3.7573   -0.1209   -0.7316 C   0  0  0  0  0  0  0  0  0  0  0  0
   -2.6688    0.1407    0.1140 C   0  0  0  0  0  0  0  0  0  0  0  0
   -2.5614    1.4462    0.7977 C   0  0  0  0  0  0  0  0  0  0  0  0
   -1.5349    2.0435    1.0550 O   0  0  0  0  0  0  0  0  0  0  0  0
   -3.7687    1.9495    1.1106 O   0  0  0  0  0  0  0  0  0  0  0  0
    0.7914   -0.2066    0.6985 C   0  0  0  0  0  0  0  0  0  0  0  0
    1.0229    0.1443   -0.6376 C   0  0  0  0  0  0  0  0  0  0  0  0
    2.3000    0.5459   -1.0457 C   0  0  0  0  0  0  0  0  0  0  0  0
    3.3539    0.6024   -0.1245 C   0  0  0  0  0  0  0  0  0  0  0  0
    3.1230    0.2556    1.2111 C   0  0  0  0  0  0  0  0  0  0  0  0
    1.8469   -0.1458    1.6190 C   0  0  0  0  0  0  0  0  0  0  0  0
    4.6876    1.0346   -0.6082 C   0  0  0  0  0  0  0  0  0  0  0  0
    4.9635    1.3421   -1.7530 O   0  0  0  0  0  0  0  0  0  0  0  0
    5.6143    1.0579    0.3653 O   0  0  0  0  0  0  0  0  0  0  0  0
   -1.0057   -2.8216   -0.2702 H   0  0  0  0  0  0  0  0  0  0  0  0
   -2.9253   -3.2534   -1.7784 H   0  0  0  0  0  0  0  0  0  0  0  0
   -4.6918   -1.5344   -2.0659 H   0  0  0  0  0  0  0  0  0  0  0  0
   -4.5422    0.6208   -0.8655 H   0  0  0  0  0  0  0  0  0  0  0  0
   -3.5620    2.7796    1.5901 H   0  0  0  0  0  0  0  0  0  0  0  0
    0.2283    0.1255   -1.3779 H   0  0  0  0  0  0  0  0  0  0  0  0
    2.4684    0.8209   -2.0857 H   0  0  0  0  0  0  0  0  0  0  0  0
    3.9245    0.2971    1.9449 H   0  0  0  0  0  0  0  0  0  0  0  0
    1.6778   -0.4070    2.6627 H   0  0  0  0  0  0  0  0  0  0  0  0
    6.4280    1.3606   -0.0896 H   0  0  0  0  0  0  0  0  0  0  0  0
  1  2  2  0
  2  3  1  0
  3  4  2  0
  4  5  1  0
  5  6  2  0
  6  7  1  0
  7  8  2  0
  8  9  1  0
  9 10  2  0
  9 11  1  0
  2 12  1  0
 12 13  2  0
 13 14  1  0
 14 15  2  0
 15 16  1  0
 16 17  2  0
 15 18  1  0
 18 19  2  0
 18 20  1  0
  8  3  1  0
 17 12  1  0
  4 21  1  0
  5 22  1  0
  6 23  1  0
  7 24  1  0
 11 25  1  0
 13 26  1  0
 14 27  1  0
 16 28  1  0
 17 29  1  0
 20 30  1  0
M  END
