
     RDKit          3D

 27 28  0  0  0  0  0  0  0  0999 V2000
    5.5233    1.0401   -0.9071 Cl  0  0  0  0  0  0  0  0  0  0  0  0
    3.9586    0.4076   -0.5745 C   0  0  0  0  0  0  0  0  0  0  0  0
    3.7403   -0.9668   -0.6310 C   0  0  0  0  0  0  0  0  0  0  0  0
    2.4683   -1.4777   -0.3593 C   0  0  0  0  0  0  0  0  0  0  0  0
    1.4128   -0.6160   -0.0279 C   0  0  0  0  0  0  0  0  0  0  0  0
    1.6419    0.7658    0.0222 C   0  0  0  0  0  0  0  0  0  0  0  0
    2.9161    1.2750   -0.2506 C   0  0  0  0  0  0  0  0  0  0  0  0
    0.0785   -1.2153    0.2570 C   0  0  0  0  0  0  0  0  0  0  0  0
   -0.1199   -2.4217    0.1522 O   0  0  0  0  0  0  0  0  0  0  0  0
   -1.0398   -0.3839    0.7288 C   0  0  0  0  0  0  0  0  0  0  0  0
   -1.1087   -0.1035    2.1005 C   0  0  0  0  0  0  0  0  0  0  0  0
   -2.1868    0.6230    2.6058 C   0  0  0  0  0  0  0  0  0  0  0  0
   -3.1996    1.0556    1.7494 C   0  0  0  0  0  0  0  0  0  0  0  0
   -3.1378    0.7637    0.3840 C   0  0  0  0  0  0  0  0  0  0  0  0
   -2.0556    0.0380   -0.1357 C   0  0  0  0  0  0  0  0  0  0  0  0
   -1.9719   -0.2258   -1.5868 C   0  0  0  0  0  0  0  0  0  0  0  0
   -0.9561   -0.2797   -2.2518 O   0  0  0  0  0  0  0  0  0  0  0  0
   -3.1875   -0.3909   -2.1375 O   0  0  0  0  0  0  0  0  0  0  0  0
    4.5490   -1.6456   -0.8886 H   0  0  0  0  0  0  0  0  0  0  0  0
    2.3015   -2.5525   -0.4114 H   0  0  0  0  0  0  0  0  0  0  0  0
    0.8465    1.4667    0.2585 H   0  0  0  0  0  0  0  0  0  0  0  0
    3.0868    2.3480   -0.2146 H   0  0  0  0  0  0  0  0  0  0  0  0
   -0.3372   -0.4658    2.7767 H   0  0  0  0  0  0  0  0  0  0  0  0
   -2.2461    0.8393    3.6703 H   0  0  0  0  0  0  0  0  0  0  0  0
   -4.0441    1.6154    2.1461 H   0  0  0  0  0  0  0  0  0  0  0  0
   -3.9361    1.1078   -0.2706 H   0  0  0  0  0  0  0  0  0  0  0  0
   -2.9961   -0.6011   -3.0761 H   0  0  0  0  0  0  0  0  0  0  0  0
  1  2  1  0
  2  3  2  0
  3  4  1  0
  4  5  2  0
  5  6  1  0
  6  7  2  0
  5  8  1  0
  8  9  2  0
  8 10  1  0
 10 11  2  0
 11 12  1  0
 12 13  2  0
 13 14  1  0
 14 15  2  0
 15 16  1  0
 16 17  2  0
 16 18  1  0
  7  2  1  0
 15 10  1  0
  3 19  1  0
  4 20  1  0
  6 21  1  0
  7 22  1  0
 11 23  1  0
 12 24  1  0
 13 25  1  0
 14 26  1  0
 18 27  1  0
M  END
