
     RDKit          3D

 37 39  0  0  0  0  0  0  0  0999 V2000
   -2.6517    0.7237    2.1507 O   0  0  0  0  0  0  0  0  0  0  0  0
   -2.2133    0.3898    1.0540 C   0  0  0  0  0  0  0  0  0  0  0  0
   -3.1808    0.0254    0.0023 C   0  0  0  0  0  0  0  0  0  0  0  0
   -3.2870    0.8576   -1.1218 C   0  0  0  0  0  0  0  0  0  0  0  0
   -4.2544    0.5952   -2.0932 C   0  0  0  0  0  0  0  0  0  0  0  0
   -5.1271   -0.4820   -1.9377 C   0  0  0  0  0  0  0  0  0  0  0  0
   -5.0306   -1.3054   -0.8138 C   0  0  0  0  0  0  0  0  0  0  0  0
   -4.0491   -1.0609    0.1568 C   0  0  0  0  0  0  0  0  0  0  0  0
   -3.9789   -1.9899    1.2992 C   0  0  0  0  0  0  0  0  0  0  0  0
   -4.9280   -2.5103    1.8539 O   0  0  0  0  0  0  0  0  0  0  0  0
   -2.7099   -2.3180    1.5964 O   0  0  0  0  0  0  0  0  0  0  0  0
   -0.7502    0.3928    0.7793 C   0  0  0  0  0  0  0  0  0  0  0  0
    0.0896    1.0896    1.6537 C   0  0  0  0  0  0  0  0  0  0  0  0
    1.4703    1.1202    1.4323 C   0  0  0  0  0  0  0  0  0  0  0  0
    2.0436    0.4499    0.3398 C   0  0  0  0  0  0  0  0  0  0  0  0
    1.1886   -0.2573   -0.5220 C   0  0  0  0  0  0  0  0  0  0  0  0
   -0.1944   -0.2905   -0.3067 C   0  0  0  0  0  0  0  0  0  0  0  0
    3.4971    0.4823    0.1078 C   0  0  0  0  0  0  0  0  0  0  0  0
    4.2337   -0.7049   -0.0414 C   0  0  0  0  0  0  0  0  0  0  0  0
    5.6135   -0.6746   -0.2618 C   0  0  0  0  0  0  0  0  0  0  0  0
    6.2808    0.5451   -0.3377 C   0  0  0  0  0  0  0  0  0  0  0  0
    5.5702    1.7337   -0.1925 C   0  0  0  0  0  0  0  0  0  0  0  0
    4.1906    1.7017    0.0290 C   0  0  0  0  0  0  0  0  0  0  0  0
   -2.6381    1.7238   -1.2330 H   0  0  0  0  0  0  0  0  0  0  0  0
   -4.3416    1.2429   -2.9629 H   0  0  0  0  0  0  0  0  0  0  0  0
   -5.8901   -0.6769   -2.6884 H   0  0  0  0  0  0  0  0  0  0  0  0
   -5.7193   -2.1404   -0.6964 H   0  0  0  0  0  0  0  0  0  0  0  0
   -2.7932   -2.9072    2.3757 H   0  0  0  0  0  0  0  0  0  0  0  0
   -0.3260    1.6113    2.5140 H   0  0  0  0  0  0  0  0  0  0  0  0
    2.1015    1.6630    2.1339 H   0  0  0  0  0  0  0  0  0  0  0  0
    1.5990   -0.7885   -1.3793 H   0  0  0  0  0  0  0  0  0  0  0  0
   -0.8113   -0.8674   -0.9900 H   0  0  0  0  0  0  0  0  0  0  0  0
    3.7351   -1.6697    0.0273 H   0  0  0  0  0  0  0  0  0  0  0  0
    6.1657   -1.6044   -0.3702 H   0  0  0  0  0  0  0  0  0  0  0  0
    7.3538    0.5694   -0.5086 H   0  0  0  0  0  0  0  0  0  0  0  0
    6.0875    2.6877   -0.2527 H   0  0  0  0  0  0  0  0  0  0  0  0
    3.6541    2.6431    0.1298 H   0  0  0  0  0  0  0  0  0  0  0  0
  1  2  2  0
  2  3  1  0
  3  4  2  0
  4  5  1  0
  5  6  2  0
  6  7  1  0
  7  8  2  0
  8  9  1  0
  9 10  2  0
  9 11  1  0
  2 12  1  0
 12 13  2  0
 13 14  1  0
 14 15  2  0
 15 16  1  0
 16 17  2  0
 15 18  1  0
 18 19  2  0
 19 20  1  0
 20 21  2  0
 21 22  1  0
 22 23  2  0
  8  3  1  0
 17 12  1  0
 23 18  1  0
  4 24  1  0
  5 25  1  0
  6 26  1  0
  7 27  1  0
 11 28  1  0
 13 29  1  0
 14 30  1  0
 16 31  1  0
 17 32  1  0
 19 33  1  0
 20 34  1  0
 21 35  1  0
 22 36  1  0
 23 37  1  0
M  END
