
     RDKit          3D

 29 30  0  0  0  0  0  0  0  0999 V2000
    0.4089   -0.1248    2.3508 O   0  0  0  0  0  0  0  0  0  0  0  0
    0.2709    0.0998    1.1520 C   0  0  0  0  0  0  0  0  0  0  0  0
    1.4783    0.4313    0.3800 C   0  0  0  0  0  0  0  0  0  0  0  0
    1.8049    1.7875    0.2390 C   0  0  0  0  0  0  0  0  0  0  0  0
    2.9707    2.1536   -0.4331 C   0  0  0  0  0  0  0  0  0  0  0  0
    3.8151    1.1711   -0.9499 C   0  0  0  0  0  0  0  0  0  0  0  0
    3.4972   -0.1812   -0.7955 C   0  0  0  0  0  0  0  0  0  0  0  0
    2.3249   -0.5622   -0.1247 C   0  0  0  0  0  0  0  0  0  0  0  0
    1.9763   -1.9939    0.0036 C   0  0  0  0  0  0  0  0  0  0  0  0
    0.8575   -2.4648    0.0605 O   0  0  0  0  0  0  0  0  0  0  0  0
    3.0696   -2.7768    0.0399 O   0  0  0  0  0  0  0  0  0  0  0  0
   -1.0734    0.0901    0.5092 C   0  0  0  0  0  0  0  0  0  0  0  0
   -1.2555    0.3667   -0.8562 C   0  0  0  0  0  0  0  0  0  0  0  0
   -2.5392    0.3567   -1.4093 C   0  0  0  0  0  0  0  0  0  0  0  0
   -3.6263    0.0675   -0.5981 C   0  0  0  0  0  0  0  0  0  0  0  0
   -3.4531   -0.2155    0.7538 C   0  0  0  0  0  0  0  0  0  0  0  0
   -2.1830   -0.2060    1.3167 C   0  0  0  0  0  0  0  0  0  0  0  0
   -4.5685   -0.4986    1.4930 O   0  0  0  0  0  0  0  0  0  0  0  0
   -4.8785    0.0596   -1.1413 O   0  0  0  0  0  0  0  0  0  0  0  0
    1.1631    2.5560    0.6646 H   0  0  0  0  0  0  0  0  0  0  0  0
    3.2285    3.2048   -0.5428 H   0  0  0  0  0  0  0  0  0  0  0  0
    4.7279    1.4573   -1.4683 H   0  0  0  0  0  0  0  0  0  0  0  0
    4.1688   -0.9338   -1.2040 H   0  0  0  0  0  0  0  0  0  0  0  0
    2.7086   -3.6804    0.1621 H   0  0  0  0  0  0  0  0  0  0  0  0
   -0.4171    0.5863   -1.5105 H   0  0  0  0  0  0  0  0  0  0  0  0
   -2.6895    0.5680   -2.4640 H   0  0  0  0  0  0  0  0  0  0  0  0
   -2.0377   -0.4274    2.3704 H   0  0  0  0  0  0  0  0  0  0  0  0
   -4.2824   -0.7141    2.3985 H   0  0  0  0  0  0  0  0  0  0  0  0
   -5.4670   -0.1766   -0.3964 H   0  0  0  0  0  0  0  0  0  0  0  0
  1  2  2  0
  2  3  1  0
  3  4  2  0
  4  5  1  0
  5  6  2  0
  6  7  1  0
  7  8  2  0
  8  9  1  0
  9 10  2  0
  9 11  1  0
  2 12  1  0
 12 13  2  0
 13 14  1  0
 14 15  2  0
 15 16  1  0
 16 17  2  0
 16 18  1  0
 15 19  1  0
  8  3  1  0
 17 12  1  0
  4 20  1  0
  5 21  1  0
  6 22  1  0
  7 23  1  0
 11 24  1  0
 13 25  1  0
 14 26  1  0
 17 27  1  0
 18 28  1  0
 19 29  1  0
M  END
