
     RDKit          3D

 32 33  0  0  0  0  0  0  0  0999 V2000
    5.2679   -0.4108   -0.1238 C   0  0  0  0  0  0  0  0  0  0  0  0
    4.0911   -0.6501   -0.8883 O   0  0  0  0  0  0  0  0  0  0  0  0
    2.9285   -0.1068   -0.4063 C   0  0  0  0  0  0  0  0  0  0  0  0
    2.7930    0.6580    0.7502 C   0  0  0  0  0  0  0  0  0  0  0  0
    1.5333    1.1473    1.1186 C   0  0  0  0  0  0  0  0  0  0  0  0
    0.4004    0.8699    0.3397 C   0  0  0  0  0  0  0  0  0  0  0  0
    0.5332    0.1152   -0.8279 C   0  0  0  0  0  0  0  0  0  0  0  0
    1.7900   -0.3644   -1.1808 C   0  0  0  0  0  0  0  0  0  0  0  0
    1.8939   -1.1064   -2.3272 O   0  0  0  0  0  0  0  0  0  0  0  0
   -0.9101    1.4218    0.7785 C   0  0  0  0  0  0  0  0  0  0  0  0
   -0.9543    2.4092    1.5076 O   0  0  0  0  0  0  0  0  0  0  0  0
   -2.1849    0.8554    0.2902 C   0  0  0  0  0  0  0  0  0  0  0  0
   -3.0182    1.7301   -0.4252 C   0  0  0  0  0  0  0  0  0  0  0  0
   -4.2215    1.2736   -0.9621 C   0  0  0  0  0  0  0  0  0  0  0  0
   -4.6032   -0.0535   -0.7809 C   0  0  0  0  0  0  0  0  0  0  0  0
   -3.7893   -0.9227   -0.0498 C   0  0  0  0  0  0  0  0  0  0  0  0
   -2.5756   -0.4748    0.4997 C   0  0  0  0  0  0  0  0  0  0  0  0
   -1.7687   -1.3968    1.3337 C   0  0  0  0  0  0  0  0  0  0  0  0
   -0.9797   -1.0941    2.2059 O   0  0  0  0  0  0  0  0  0  0  0  0
   -1.9808   -2.6852    1.0082 O   0  0  0  0  0  0  0  0  0  0  0  0
    5.1825   -0.8445    0.8780 H   0  0  0  0  0  0  0  0  0  0  0  0
    6.1014   -0.9061   -0.6311 H   0  0  0  0  0  0  0  0  0  0  0  0
    5.4958    0.6591   -0.0752 H   0  0  0  0  0  0  0  0  0  0  0  0
    3.6365    0.8938    1.3901 H   0  0  0  0  0  0  0  0  0  0  0  0
    1.4334    1.7406    2.0265 H   0  0  0  0  0  0  0  0  0  0  0  0
   -0.3090   -0.0995   -1.4772 H   0  0  0  0  0  0  0  0  0  0  0  0
    2.8421   -1.3349   -2.3945 H   0  0  0  0  0  0  0  0  0  0  0  0
   -2.7251    2.7694   -0.5656 H   0  0  0  0  0  0  0  0  0  0  0  0
   -4.8613    1.9547   -1.5188 H   0  0  0  0  0  0  0  0  0  0  0  0
   -5.5429   -0.4106   -1.1968 H   0  0  0  0  0  0  0  0  0  0  0  0
   -4.1195   -1.9488    0.1010 H   0  0  0  0  0  0  0  0  0  0  0  0
   -1.3791   -3.1810    1.6034 H   0  0  0  0  0  0  0  0  0  0  0  0
  1  2  1  0
  2  3  1  0
  3  4  2  0
  4  5  1  0
  5  6  2  0
  6  7  1  0
  7  8  2  0
  8  9  1  0
  6 10  1  0
 10 11  2  0
 10 12  1  0
 12 13  2  0
 13 14  1  0
 14 15  2  0
 15 16  1  0
 16 17  2  0
 17 18  1  0
 18 19  2  0
 18 20  1  0
  8  3  1  0
 17 12  1  0
  1 21  1  0
  1 22  1  0
  1 23  1  0
  4 24  1  0
  5 25  1  0
  7 26  1  0
  9 27  1  0
 13 28  1  0
 14 29  1  0
 15 30  1  0
 16 31  1  0
 20 32  1  0
M  END
