
     RDKit          3D

 79 82  0  0  0  0  0  0  0  0999 V2000
   -4.3923    3.5354   -4.5819 O   0  0  0  0  0  0  0  0  0  0  0  0
   -4.4589    3.4837   -3.1624 C   0  0  0  0  0  0  0  0  0  0  0  0
   -3.1771    2.8796   -2.5792 C   0  0  0  0  0  0  0  0  0  0  0  0
   -3.2836    3.0204   -1.1553 O   0  0  0  0  0  0  0  0  0  0  0  0
   -2.3753    2.1771   -0.4248 C   0  0  0  0  0  0  0  0  0  0  0  0
   -1.0314    2.4240   -0.8472 O   0  0  0  0  0  0  0  0  0  0  0  0
    0.0052    2.0207   -0.0570 C   0  0  0  0  0  0  0  0  0  0  0  0
   -0.0840    1.5692    1.2569 C   0  0  0  0  0  0  0  0  0  0  0  0
    1.0757    1.2066    1.9456 C   0  0  0  0  0  0  0  0  0  0  0  0
    0.9028    0.7740    3.2374 O   0  0  0  0  0  0  0  0  0  0  0  0
    2.3390    1.3096    1.3458 C   0  0  0  0  0  0  0  0  0  0  0  0
    2.4132    1.7065    0.0114 C   0  0  0  0  0  0  0  0  0  0  0  0
    1.2590    2.0815   -0.6760 C   0  0  0  0  0  0  0  0  0  0  0  0
    3.5785    1.7305   -0.6997 O   0  0  0  0  0  0  0  0  0  0  0  0
    3.5321    1.0407    2.1826 C   0  0  0  0  0  0  0  0  0  0  0  0
    3.4676    0.0965    2.9731 O   0  0  0  0  0  0  0  0  0  0  0  0
    4.6807    2.0315    2.1635 C   0  0  0  0  0  0  0  0  0  0  0  0
    5.9928    1.4146    2.6440 C   0  0  0  0  0  0  0  0  0  0  0  0
    6.6041    0.4708    1.6361 C   0  0  0  0  0  0  0  0  0  0  0  0
    6.5323   -0.9166    1.8258 C   0  0  0  0  0  0  0  0  0  0  0  0
    7.1401   -1.7995    0.9226 C   0  0  0  0  0  0  0  0  0  0  0  0
    7.8227   -1.3051   -0.1869 C   0  0  0  0  0  0  0  0  0  0  0  0
    7.8620    0.0796   -0.3855 C   0  0  0  0  0  0  0  0  0  0  0  0
    7.2640    0.9659    0.5054 C   0  0  0  0  0  0  0  0  0  0  0  0
    8.5103    0.5981   -1.4729 O   0  0  0  0  0  0  0  0  0  0  0  0
    8.4810   -2.0485   -1.1338 O   0  0  0  0  0  0  0  0  0  0  0  0
    8.5504   -3.4506   -0.9041 C   0  0  0  0  0  0  0  0  0  0  0  0
   -2.7991    0.6907   -0.5826 C   0  0  0  0  0  0  0  0  0  0  0  0
   -3.4745    0.4458   -1.9495 C   0  0  0  0  0  0  0  0  0  0  0  0
   -2.9957    1.4164   -3.0323 C   0  0  0  0  0  0  0  0  0  0  0  0
   -1.6063    1.1084   -3.2770 O   0  0  0  0  0  0  0  0  0  0  0  0
   -3.1635   -0.8975   -2.3841 O   0  0  0  0  0  0  0  0  0  0  0  0
   -3.6928    0.3800    0.5185 O   0  0  0  0  0  0  0  0  0  0  0  0
   -4.1084   -0.9941    0.5819 C   0  0  0  0  0  0  0  0  0  0  0  0
   -5.2940   -1.1503   -0.1947 O   0  0  0  0  0  0  0  0  0  0  0  0
   -5.8855   -2.4539   -0.1262 C   0  0  0  0  0  0  0  0  0  0  0  0
   -5.0197   -3.5061   -0.8194 C   0  0  0  0  0  0  0  0  0  0  0  0
   -6.2653   -2.8003    1.3206 C   0  0  0  0  0  0  0  0  0  0  0  0
   -5.0588   -2.6483    2.2505 C   0  0  0  0  0  0  0  0  0  0  0  0
   -4.4007   -1.2835    2.0730 C   0  0  0  0  0  0  0  0  0  0  0  0
   -5.3034   -0.2943    2.6251 O   0  0  0  0  0  0  0  0  0  0  0  0
   -5.5074   -2.8025    3.6078 O   0  0  0  0  0  0  0  0  0  0  0  0
   -6.7842   -4.1258    1.4283 O   0  0  0  0  0  0  0  0  0  0  0  0
   -5.2217    3.9424   -4.8893 H   0  0  0  0  0  0  0  0  0  0  0  0
   -5.3347    2.8926   -2.8668 H   0  0  0  0  0  0  0  0  0  0  0  0
   -4.6104    4.5010   -2.7801 H   0  0  0  0  0  0  0  0  0  0  0  0
   -2.3241    3.4754   -2.9221 H   0  0  0  0  0  0  0  0  0  0  0  0
   -2.4992    2.5062    0.6129 H   0  0  0  0  0  0  0  0  0  0  0  0
   -1.0284    1.5028    1.7894 H   0  0  0  0  0  0  0  0  0  0  0  0
    1.7314    0.3306    3.5269 H   0  0  0  0  0  0  0  0  0  0  0  0
    1.3301    2.4188   -1.7053 H   0  0  0  0  0  0  0  0  0  0  0  0
    4.0348    0.8788   -0.5671 H   0  0  0  0  0  0  0  0  0  0  0  0
    4.8167    2.4842    1.1792 H   0  0  0  0  0  0  0  0  0  0  0  0
    4.3993    2.8384    2.8502 H   0  0  0  0  0  0  0  0  0  0  0  0
    5.8502    0.9009    3.6039 H   0  0  0  0  0  0  0  0  0  0  0  0
    6.7172    2.2162    2.8394 H   0  0  0  0  0  0  0  0  0  0  0  0
    6.0111   -1.3215    2.6933 H   0  0  0  0  0  0  0  0  0  0  0  0
    7.0759   -2.8615    1.1305 H   0  0  0  0  0  0  0  0  0  0  0  0
    7.3321    2.0337    0.3173 H   0  0  0  0  0  0  0  0  0  0  0  0
    8.8998   -0.1753   -1.9266 H   0  0  0  0  0  0  0  0  0  0  0  0
    9.1503   -3.8882   -1.7089 H   0  0  0  0  0  0  0  0  0  0  0  0
    9.0463   -3.6765    0.0454 H   0  0  0  0  0  0  0  0  0  0  0  0
    7.5557   -3.9061   -0.9471 H   0  0  0  0  0  0  0  0  0  0  0  0
   -1.9224    0.0405   -0.4692 H   0  0  0  0  0  0  0  0  0  0  0  0
   -4.5639    0.5126   -1.8651 H   0  0  0  0  0  0  0  0  0  0  0  0
   -3.5049    1.2060   -3.9784 H   0  0  0  0  0  0  0  0  0  0  0  0
   -1.3472    1.5839   -4.0877 H   0  0  0  0  0  0  0  0  0  0  0  0
   -2.2901   -0.8119   -2.8272 H   0  0  0  0  0  0  0  0  0  0  0  0
   -3.3091   -1.6546    0.2258 H   0  0  0  0  0  0  0  0  0  0  0  0
   -6.8127   -2.3930   -0.7080 H   0  0  0  0  0  0  0  0  0  0  0  0
   -4.1053   -3.7235   -0.2639 H   0  0  0  0  0  0  0  0  0  0  0  0
   -5.5642   -4.4466   -0.9382 H   0  0  0  0  0  0  0  0  0  0  0  0
   -4.7104   -3.1567   -1.8073 H   0  0  0  0  0  0  0  0  0  0  0  0
   -7.0590   -2.1182    1.6529 H   0  0  0  0  0  0  0  0  0  0  0  0
   -4.3388   -3.4534    2.0659 H   0  0  0  0  0  0  0  0  0  0  0  0
   -3.4847   -1.2078    2.6672 H   0  0  0  0  0  0  0  0  0  0  0  0
   -5.0806    0.5342    2.1498 H   0  0  0  0  0  0  0  0  0  0  0  0
   -5.7841   -1.9030    3.8855 H   0  0  0  0  0  0  0  0  0  0  0  0
   -6.9064   -4.2821    2.3866 H   0  0  0  0  0  0  0  0  0  0  0  0
  1  2  1  0
  2  3  1  0
  3  4  1  0
  4  5  1  0
  5  6  1  0
  6  7  1  0
  7  8  2  0
  8  9  1  0
  9 10  1  0
  9 11  2  0
 11 12  1  0
 12 13  2  0
 12 14  1  0
 11 15  1  0
 15 16  2  0
 15 17  1  0
 17 18  1  0
 18 19  1  0
 19 20  2  0
 20 21  1  0
 21 22  2  0
 22 23  1  0
 23 24  2  0
 23 25  1  0
 22 26  1  0
 26 27  1  0
  5 28  1  0
 28 29  1  0
 29 30  1  0
 30 31  1  0
 29 32  1  0
 28 33  1  0
 33 34  1  0
 34 35  1  0
 35 36  1  0
 36 37  1  0
 36 38  1  0
 38 39  1  0
 39 40  1  0
 40 41  1  0
 39 42  1  0
 38 43  1  0
 30  3  1  0
 40 34  1  0
 13  7  1  0
 24 19  1  0
  1 44  1  0
  2 45  1  0
  2 46  1  0
  3 47  1  0
  5 48  1  0
  8 49  1  0
 10 50  1  0
 13 51  1  0
 14 52  1  0
 17 53  1  0
 17 54  1  0
 18 55  1  0
 18 56  1  0
 20 57  1  0
 21 58  1  0
 24 59  1  0
 25 60  1  0
 27 61  1  0
 27 62  1  0
 27 63  1  0
 28 64  1  0
 29 65  1  0
 30 66  1  0
 31 67  1  0
 32 68  1  0
 34 69  1  0
 36 70  1  0
 37 71  1  0
 37 72  1  0
 37 73  1  0
 38 74  1  0
 39 75  1  0
 40 76  1  0
 41 77  1  0
 42 78  1  0
 43 79  1  0
M  END
