
     RDKit          3D

 32 33  0  0  0  0  0  0  0  0999 V2000
    4.4199    1.6272    0.4721 C   0  0  0  0  0  0  0  0  0  0  0  0
    4.1712    0.5373   -0.4102 O   0  0  0  0  0  0  0  0  0  0  0  0
    2.9152   -0.0112   -0.3620 C   0  0  0  0  0  0  0  0  0  0  0  0
    1.8757    0.3827    0.4785 C   0  0  0  0  0  0  0  0  0  0  0  0
    0.6315   -0.2666    0.4109 C   0  0  0  0  0  0  0  0  0  0  0  0
    0.4355   -1.3282   -0.4842 C   0  0  0  0  0  0  0  0  0  0  0  0
    1.4745   -1.7254   -1.3246 C   0  0  0  0  0  0  0  0  0  0  0  0
    2.6953   -1.0651   -1.2567 C   0  0  0  0  0  0  0  0  0  0  0  0
    3.6965   -1.4758   -2.0945 O   0  0  0  0  0  0  0  0  0  0  0  0
   -0.4455    0.1900    1.3311 C   0  0  0  0  0  0  0  0  0  0  0  0
   -0.1608    0.7227    2.4002 O   0  0  0  0  0  0  0  0  0  0  0  0
   -1.8712   -0.0502    1.0220 C   0  0  0  0  0  0  0  0  0  0  0  0
   -2.5962   -0.7977    1.9630 C   0  0  0  0  0  0  0  0  0  0  0  0
   -3.9342   -1.1141    1.7289 C   0  0  0  0  0  0  0  0  0  0  0  0
   -4.5570   -0.6801    0.5607 C   0  0  0  0  0  0  0  0  0  0  0  0
   -3.8473    0.0847   -0.3685 C   0  0  0  0  0  0  0  0  0  0  0  0
   -2.5002    0.4134   -0.1420 C   0  0  0  0  0  0  0  0  0  0  0  0
   -1.7957    1.2921   -1.1031 C   0  0  0  0  0  0  0  0  0  0  0  0
   -0.8832    2.0557   -0.8600 O   0  0  0  0  0  0  0  0  0  0  0  0
   -2.2661    1.1418   -2.3545 O   0  0  0  0  0  0  0  0  0  0  0  0
    4.3307    1.3160    1.5181 H   0  0  0  0  0  0  0  0  0  0  0  0
    5.4503    1.9581    0.3102 H   0  0  0  0  0  0  0  0  0  0  0  0
    3.7600    2.4727    0.2509 H   0  0  0  0  0  0  0  0  0  0  0  0
    1.9929    1.1965    1.1881 H   0  0  0  0  0  0  0  0  0  0  0  0
   -0.5070   -1.8661   -0.5328 H   0  0  0  0  0  0  0  0  0  0  0  0
    1.3393   -2.5457   -2.0237 H   0  0  0  0  0  0  0  0  0  0  0  0
    4.4539   -0.8948   -1.8838 H   0  0  0  0  0  0  0  0  0  0  0  0
   -2.1144   -1.1359    2.8792 H   0  0  0  0  0  0  0  0  0  0  0  0
   -4.4908   -1.6961    2.4602 H   0  0  0  0  0  0  0  0  0  0  0  0
   -5.6017   -0.9233    0.3791 H   0  0  0  0  0  0  0  0  0  0  0  0
   -4.3596    0.4376   -1.2617 H   0  0  0  0  0  0  0  0  0  0  0  0
   -1.7113    1.7478   -2.8910 H   0  0  0  0  0  0  0  0  0  0  0  0
  1  2  1  0
  2  3  1  0
  3  4  2  0
  4  5  1  0
  5  6  2  0
  6  7  1  0
  7  8  2  0
  8  9  1  0
  5 10  1  0
 10 11  2  0
 10 12  1  0
 12 13  2  0
 13 14  1  0
 14 15  2  0
 15 16  1  0
 16 17  2  0
 17 18  1  0
 18 19  2  0
 18 20  1  0
  8  3  1  0
 17 12  1  0
  1 21  1  0
  1 22  1  0
  1 23  1  0
  4 24  1  0
  6 25  1  0
  7 26  1  0
  9 27  1  0
 13 28  1  0
 14 29  1  0
 15 30  1  0
 16 31  1  0
 20 32  1  0
M  END
