
     RDKit          3D

 35 36  0  0  0  0  0  0  0  0999 V2000
   -1.8138   -1.4259    2.5762 C   0  0  0  0  0  0  0  0  0  0  0  0
   -2.2821   -1.3414    1.2294 O   0  0  0  0  0  0  0  0  0  0  0  0
   -1.8129   -0.1954    0.6348 C   0  0  0  0  0  0  0  0  0  0  0  0
   -0.7428   -0.3408   -0.2518 C   0  0  0  0  0  0  0  0  0  0  0  0
   -0.2259    0.7835   -0.8978 C   0  0  0  0  0  0  0  0  0  0  0  0
   -0.8203    2.0335   -0.6868 C   0  0  0  0  0  0  0  0  0  0  0  0
   -1.9129    2.1667    0.1789 C   0  0  0  0  0  0  0  0  0  0  0  0
   -2.4249    1.0508    0.8451 C   0  0  0  0  0  0  0  0  0  0  0  0
   -3.4934    1.0700    1.7008 O   0  0  0  0  0  0  0  0  0  0  0  0
   -4.2240    2.2845    1.8050 C   0  0  0  0  0  0  0  0  0  0  0  0
    0.9304    0.6979   -1.8301 C   0  0  0  0  0  0  0  0  0  0  0  0
    1.0718    1.5439   -2.7095 O   0  0  0  0  0  0  0  0  0  0  0  0
    1.8955   -0.4224   -1.7665 C   0  0  0  0  0  0  0  0  0  0  0  0
    2.1048   -1.1348   -2.9575 C   0  0  0  0  0  0  0  0  0  0  0  0
    2.9461   -2.2481   -2.9743 C   0  0  0  0  0  0  0  0  0  0  0  0
    3.5851   -2.6562   -1.8050 C   0  0  0  0  0  0  0  0  0  0  0  0
    3.4004   -1.9389   -0.6216 C   0  0  0  0  0  0  0  0  0  0  0  0
    2.5719   -0.8061   -0.6002 C   0  0  0  0  0  0  0  0  0  0  0  0
    2.4805   -0.0804    0.6809 C   0  0  0  0  0  0  0  0  0  0  0  0
    2.4704   -0.5923    1.7841 O   0  0  0  0  0  0  0  0  0  0  0  0
    2.4858    1.2496    0.5119 O   0  0  0  0  0  0  0  0  0  0  0  0
   -2.2717   -0.6600    3.2098 H   0  0  0  0  0  0  0  0  0  0  0  0
   -2.1050   -2.4048    2.9690 H   0  0  0  0  0  0  0  0  0  0  0  0
   -0.7210   -1.3552    2.6233 H   0  0  0  0  0  0  0  0  0  0  0  0
   -0.3409   -1.3351   -0.4207 H   0  0  0  0  0  0  0  0  0  0  0  0
   -0.4332    2.9127   -1.1999 H   0  0  0  0  0  0  0  0  0  0  0  0
   -2.3392    3.1565    0.3057 H   0  0  0  0  0  0  0  0  0  0  0  0
   -5.0767    2.1056    2.4671 H   0  0  0  0  0  0  0  0  0  0  0  0
   -4.6178    2.5966    0.8319 H   0  0  0  0  0  0  0  0  0  0  0  0
   -3.6126    3.0727    2.2564 H   0  0  0  0  0  0  0  0  0  0  0  0
    1.6030   -0.8257   -3.8733 H   0  0  0  0  0  0  0  0  0  0  0  0
    3.0992   -2.7985   -3.9000 H   0  0  0  0  0  0  0  0  0  0  0  0
    4.2370   -3.5271   -1.8168 H   0  0  0  0  0  0  0  0  0  0  0  0
    3.9174   -2.2569    0.2826 H   0  0  0  0  0  0  0  0  0  0  0  0
    2.4716    1.6215    1.4187 H   0  0  0  0  0  0  0  0  0  0  0  0
  1  2  1  0
  2  3  1  0
  3  4  2  0
  4  5  1  0
  5  6  2  0
  6  7  1  0
  7  8  2  0
  8  9  1  0
  9 10  1  0
  5 11  1  0
 11 12  2  0
 11 13  1  0
 13 14  2  0
 14 15  1  0
 15 16  2  0
 16 17  1  0
 17 18  2  0
 18 19  1  0
 19 20  2  0
 19 21  1  0
  8  3  1  0
 18 13  1  0
  1 22  1  0
  1 23  1  0
  1 24  1  0
  4 25  1  0
  6 26  1  0
  7 27  1  0
 10 28  1  0
 10 29  1  0
 10 30  1  0
 14 31  1  0
 15 32  1  0
 16 33  1  0
 17 34  1  0
 21 35  1  0
M  END
