
     RDKit          3D

 35 36  0  0  0  0  0  0  0  0999 V2000
    0.0524   -2.3141   -1.6337 C   0  0  0  0  0  0  0  0  0  0  0  0
   -0.0463   -1.5448   -0.4416 O   0  0  0  0  0  0  0  0  0  0  0  0
    0.8601   -0.5364   -0.2520 C   0  0  0  0  0  0  0  0  0  0  0  0
    1.9548   -0.3020   -1.0953 C   0  0  0  0  0  0  0  0  0  0  0  0
    2.8769    0.7183   -0.8266 C   0  0  0  0  0  0  0  0  0  0  0  0
    3.8886    0.8248   -1.7420 O   0  0  0  0  0  0  0  0  0  0  0  0
    4.8616    1.8366   -1.5098 C   0  0  0  0  0  0  0  0  0  0  0  0
    2.7115    1.5133    0.3037 C   0  0  0  0  0  0  0  0  0  0  0  0
    1.6261    1.2925    1.1535 C   0  0  0  0  0  0  0  0  0  0  0  0
    0.6903    0.2837    0.8763 C   0  0  0  0  0  0  0  0  0  0  0  0
   -0.4365    0.1390    1.8402 C   0  0  0  0  0  0  0  0  0  0  0  0
   -0.2476    0.3840    3.0313 O   0  0  0  0  0  0  0  0  0  0  0  0
   -1.7812   -0.3303    1.4342 C   0  0  0  0  0  0  0  0  0  0  0  0
   -2.3239   -1.3874    2.1837 C   0  0  0  0  0  0  0  0  0  0  0  0
   -3.5649   -1.9296    1.8478 C   0  0  0  0  0  0  0  0  0  0  0  0
   -4.2777   -1.4164    0.7671 C   0  0  0  0  0  0  0  0  0  0  0  0
   -3.7574   -0.3498    0.0309 C   0  0  0  0  0  0  0  0  0  0  0  0
   -2.5100    0.2065    0.3642 C   0  0  0  0  0  0  0  0  0  0  0  0
   -2.0362    1.3922   -0.3798 C   0  0  0  0  0  0  0  0  0  0  0  0
   -1.3885    2.3202    0.0618 O   0  0  0  0  0  0  0  0  0  0  0  0
   -2.3986    1.3475   -1.6755 O   0  0  0  0  0  0  0  0  0  0  0  0
    0.9808   -2.8939   -1.6513 H   0  0  0  0  0  0  0  0  0  0  0  0
   -0.0395   -1.6811   -2.5225 H   0  0  0  0  0  0  0  0  0  0  0  0
   -0.7819   -3.0221   -1.6427 H   0  0  0  0  0  0  0  0  0  0  0  0
    2.1321   -0.9096   -1.9774 H   0  0  0  0  0  0  0  0  0  0  0  0
    5.3941    1.6637   -0.5687 H   0  0  0  0  0  0  0  0  0  0  0  0
    4.4076    2.8328   -1.5313 H   0  0  0  0  0  0  0  0  0  0  0  0
    5.5945    1.7874   -2.3208 H   0  0  0  0  0  0  0  0  0  0  0  0
    3.4007    2.3122    0.5555 H   0  0  0  0  0  0  0  0  0  0  0  0
    1.4982    1.9230    2.0323 H   0  0  0  0  0  0  0  0  0  0  0  0
   -1.7693   -1.7950    3.0275 H   0  0  0  0  0  0  0  0  0  0  0  0
   -3.9728   -2.7520    2.4308 H   0  0  0  0  0  0  0  0  0  0  0  0
   -5.2460   -1.8368    0.5053 H   0  0  0  0  0  0  0  0  0  0  0  0
   -4.3393    0.0571   -0.7936 H   0  0  0  0  0  0  0  0  0  0  0  0
   -2.0128    2.1662   -2.0529 H   0  0  0  0  0  0  0  0  0  0  0  0
  1  2  1  0
  2  3  1  0
  3  4  2  0
  4  5  1  0
  5  6  1  0
  6  7  1  0
  5  8  2  0
  8  9  1  0
  9 10  2  0
 10 11  1  0
 11 12  2  0
 11 13  1  0
 13 14  2  0
 14 15  1  0
 15 16  2  0
 16 17  1  0
 17 18  2  0
 18 19  1  0
 19 20  2  0
 19 21  1  0
 10  3  1  0
 18 13  1  0
  1 22  1  0
  1 23  1  0
  1 24  1  0
  4 25  1  0
  7 26  1  0
  7 27  1  0
  7 28  1  0
  8 29  1  0
  9 30  1  0
 14 31  1  0
 15 32  1  0
 16 33  1  0
 17 34  1  0
 21 35  1  0
M  END
