
     RDKit          3D

 32 33  0  0  0  0  0  0  0  0999 V2000
    5.5179   -0.0555    0.1212 C   0  0  0  0  0  0  0  0  0  0  0  0
    4.4009    0.6249    0.6815 O   0  0  0  0  0  0  0  0  0  0  0  0
    3.1631    0.2357    0.2497 C   0  0  0  0  0  0  0  0  0  0  0  0
    2.0980    0.9248    0.8367 C   0  0  0  0  0  0  0  0  0  0  0  0
    0.7747    0.6342    0.4884 C   0  0  0  0  0  0  0  0  0  0  0  0
    0.5030   -0.3543   -0.4644 C   0  0  0  0  0  0  0  0  0  0  0  0
    1.5760   -1.0538   -1.0367 C   0  0  0  0  0  0  0  0  0  0  0  0
    2.8965   -0.7589   -0.6895 C   0  0  0  0  0  0  0  0  0  0  0  0
    1.4066   -2.0541   -1.9596 O   0  0  0  0  0  0  0  0  0  0  0  0
   -0.8907   -0.6847   -0.8680 C   0  0  0  0  0  0  0  0  0  0  0  0
   -1.1166   -1.6917   -1.5372 O   0  0  0  0  0  0  0  0  0  0  0  0
   -2.0225    0.1939   -0.5271 C   0  0  0  0  0  0  0  0  0  0  0  0
   -2.0966    1.4486   -1.1494 C   0  0  0  0  0  0  0  0  0  0  0  0
   -3.1990    2.2734   -0.9214 C   0  0  0  0  0  0  0  0  0  0  0  0
   -4.2345    1.8428   -0.0917 C   0  0  0  0  0  0  0  0  0  0  0  0
   -4.1681    0.5881    0.5186 C   0  0  0  0  0  0  0  0  0  0  0  0
   -3.0558   -0.2395    0.3112 C   0  0  0  0  0  0  0  0  0  0  0  0
   -3.0375   -1.5378    1.0110 C   0  0  0  0  0  0  0  0  0  0  0  0
   -4.0069   -2.2344    1.2437 O   0  0  0  0  0  0  0  0  0  0  0  0
   -1.8175   -1.8314    1.4913 O   0  0  0  0  0  0  0  0  0  0  0  0
    6.4238    0.3669    0.5666 H   0  0  0  0  0  0  0  0  0  0  0  0
    5.4932   -1.1226    0.3652 H   0  0  0  0  0  0  0  0  0  0  0  0
    5.5741    0.1027   -0.9609 H   0  0  0  0  0  0  0  0  0  0  0  0
    2.3030    1.6940    1.5785 H   0  0  0  0  0  0  0  0  0  0  0  0
   -0.0199    1.1831    0.9855 H   0  0  0  0  0  0  0  0  0  0  0  0
    3.6870   -1.3271   -1.1678 H   0  0  0  0  0  0  0  0  0  0  0  0
    0.4403   -2.2253   -2.0427 H   0  0  0  0  0  0  0  0  0  0  0  0
   -1.3133    1.7782   -1.8290 H   0  0  0  0  0  0  0  0  0  0  0  0
   -3.2611    3.2454   -1.4063 H   0  0  0  0  0  0  0  0  0  0  0  0
   -5.0999    2.4810    0.0741 H   0  0  0  0  0  0  0  0  0  0  0  0
   -4.9844    0.2575    1.1590 H   0  0  0  0  0  0  0  0  0  0  0  0
   -1.9339   -2.7039    1.9243 H   0  0  0  0  0  0  0  0  0  0  0  0
  1  2  1  0
  2  3  1  0
  3  4  2  0
  4  5  1  0
  5  6  2  0
  6  7  1  0
  7  8  2  0
  7  9  1  0
  6 10  1  0
 10 11  2  0
 10 12  1  0
 12 13  2  0
 13 14  1  0
 14 15  2  0
 15 16  1  0
 16 17  2  0
 17 18  1  0
 18 19  2  0
 18 20  1  0
  8  3  1  0
 17 12  1  0
  1 21  1  0
  1 22  1  0
  1 23  1  0
  4 24  1  0
  5 25  1  0
  8 26  1  0
  9 27  1  0
 13 28  1  0
 14 29  1  0
 15 30  1  0
 16 31  1  0
 20 32  1  0
M  END
