
     RDKit          3D

 32 33  0  0  0  0  0  0  0  0999 V2000
    5.1298   -0.4806    0.9983 C   0  0  0  0  0  0  0  0  0  0  0  0
    4.2327    0.6145    0.8661 O   0  0  0  0  0  0  0  0  0  0  0  0
    3.0358    0.3605    0.2548 C   0  0  0  0  0  0  0  0  0  0  0  0
    2.1878    1.4642    0.1488 C   0  0  0  0  0  0  0  0  0  0  0  0
    0.9330    1.3462   -0.4546 C   0  0  0  0  0  0  0  0  0  0  0  0
    0.5010    0.1133   -0.9598 C   0  0  0  0  0  0  0  0  0  0  0  0
    1.3597   -0.9891   -0.8566 C   0  0  0  0  0  0  0  0  0  0  0  0
    2.6164   -0.8685   -0.2518 C   0  0  0  0  0  0  0  0  0  0  0  0
   -0.8498   -0.0267   -1.6283 C   0  0  0  0  0  0  0  0  0  0  0  0
   -2.0265    0.3047   -0.7320 C   0  0  0  0  0  0  0  0  0  0  0  0
   -2.6920    1.5313   -0.9290 C   0  0  0  0  0  0  0  0  0  0  0  0
   -3.7535    1.9176   -0.1090 C   0  0  0  0  0  0  0  0  0  0  0  0
   -4.1707    1.0882    0.9259 C   0  0  0  0  0  0  0  0  0  0  0  0
   -3.5293   -0.1318    1.1376 C   0  0  0  0  0  0  0  0  0  0  0  0
   -2.4609   -0.5330    0.3160 C   0  0  0  0  0  0  0  0  0  0  0  0
   -1.8453   -1.8624    0.5630 C   0  0  0  0  0  0  0  0  0  0  0  0
   -1.3946   -2.6296   -0.2657 O   0  0  0  0  0  0  0  0  0  0  0  0
   -1.8265   -2.1661    1.8747 O   0  0  0  0  0  0  0  0  0  0  0  0
    6.0296   -0.1163    1.5035 H   0  0  0  0  0  0  0  0  0  0  0  0
    4.6976   -1.2727    1.6188 H   0  0  0  0  0  0  0  0  0  0  0  0
    5.4311   -0.8649    0.0182 H   0  0  0  0  0  0  0  0  0  0  0  0
    2.5072    2.4269    0.5402 H   0  0  0  0  0  0  0  0  0  0  0  0
    0.2976    2.2258   -0.5228 H   0  0  0  0  0  0  0  0  0  0  0  0
    1.0518   -1.9595   -1.2432 H   0  0  0  0  0  0  0  0  0  0  0  0
    3.2388   -1.7548   -0.1947 H   0  0  0  0  0  0  0  0  0  0  0  0
   -0.8514    0.6355   -2.5053 H   0  0  0  0  0  0  0  0  0  0  0  0
   -0.9829   -1.0276   -2.0545 H   0  0  0  0  0  0  0  0  0  0  0  0
   -2.3774    2.2036   -1.7256 H   0  0  0  0  0  0  0  0  0  0  0  0
   -4.2509    2.8698   -0.2771 H   0  0  0  0  0  0  0  0  0  0  0  0
   -4.9954    1.3879    1.5675 H   0  0  0  0  0  0  0  0  0  0  0  0
   -3.8724   -0.7742    1.9459 H   0  0  0  0  0  0  0  0  0  0  0  0
   -1.3705   -3.0323    1.9082 H   0  0  0  0  0  0  0  0  0  0  0  0
  1  2  1  0
  2  3  1  0
  3  4  2  0
  4  5  1  0
  5  6  2  0
  6  7  1  0
  7  8  2  0
  6  9  1  0
  9 10  1  0
 10 11  2  0
 11 12  1  0
 12 13  2  0
 13 14  1  0
 14 15  2  0
 15 16  1  0
 16 17  2  0
 16 18  1  0
  8  3  1  0
 15 10  1  0
  1 19  1  0
  1 20  1  0
  1 21  1  0
  4 22  1  0
  5 23  1  0
  7 24  1  0
  8 25  1  0
  9 26  1  0
  9 27  1  0
 11 28  1  0
 12 29  1  0
 13 30  1  0
 14 31  1  0
 18 32  1  0
M  END
