
     RDKit          3D

 30 31  0  0  0  0  0  0  0  0999 V2000
    4.9708    1.4304   -0.4098 C   0  0  0  0  0  0  0  0  0  0  0  0
    4.4812    0.1466   -0.7758 O   0  0  0  0  0  0  0  0  0  0  0  0
    3.1243   -0.0252   -0.7583 C   0  0  0  0  0  0  0  0  0  0  0  0
    2.6922   -1.2936   -1.1581 C   0  0  0  0  0  0  0  0  0  0  0  0
    1.3318   -1.6057   -1.1868 C   0  0  0  0  0  0  0  0  0  0  0  0
    0.3967   -0.6509   -0.7953 C   0  0  0  0  0  0  0  0  0  0  0  0
    0.8154    0.6259   -0.4169 C   0  0  0  0  0  0  0  0  0  0  0  0
    2.1797    0.9356   -0.3917 C   0  0  0  0  0  0  0  0  0  0  0  0
   -0.9318   -1.0036   -0.8648 O   0  0  0  0  0  0  0  0  0  0  0  0
   -1.7049   -0.7293    0.2429 C   0  0  0  0  0  0  0  0  0  0  0  0
   -1.3346   -1.2351    1.4979 C   0  0  0  0  0  0  0  0  0  0  0  0
   -2.1472   -1.0194    2.6111 C   0  0  0  0  0  0  0  0  0  0  0  0
   -3.3404   -0.3138    2.4754 C   0  0  0  0  0  0  0  0  0  0  0  0
   -3.7247    0.1749    1.2244 C   0  0  0  0  0  0  0  0  0  0  0  0
   -2.9132   -0.0344    0.0968 C   0  0  0  0  0  0  0  0  0  0  0  0
   -3.3205    0.5079   -1.2234 C   0  0  0  0  0  0  0  0  0  0  0  0
   -2.6071    0.7601   -2.1746 O   0  0  0  0  0  0  0  0  0  0  0  0
   -4.6502    0.7172   -1.2928 O   0  0  0  0  0  0  0  0  0  0  0  0
    4.7133    1.6700    0.6271 H   0  0  0  0  0  0  0  0  0  0  0  0
    6.0623    1.4055   -0.4841 H   0  0  0  0  0  0  0  0  0  0  0  0
    4.6081    2.2023   -1.0967 H   0  0  0  0  0  0  0  0  0  0  0  0
    3.4224   -2.0418   -1.4564 H   0  0  0  0  0  0  0  0  0  0  0  0
    1.0056   -2.5898   -1.5101 H   0  0  0  0  0  0  0  0  0  0  0  0
    0.0883    1.3894   -0.1554 H   0  0  0  0  0  0  0  0  0  0  0  0
    2.4679    1.9367   -0.0899 H   0  0  0  0  0  0  0  0  0  0  0  0
   -0.4168   -1.8075    1.6105 H   0  0  0  0  0  0  0  0  0  0  0  0
   -1.8522   -1.4101    3.5821 H   0  0  0  0  0  0  0  0  0  0  0  0
   -3.9762   -0.1476    3.3419 H   0  0  0  0  0  0  0  0  0  0  0  0
   -4.6607    0.7224    1.1376 H   0  0  0  0  0  0  0  0  0  0  0  0
   -4.7796    1.0476   -2.2068 H   0  0  0  0  0  0  0  0  0  0  0  0
  1  2  1  0
  2  3  1  0
  3  4  2  0
  4  5  1  0
  5  6  2  0
  6  7  1  0
  7  8  2  0
  6  9  1  0
  9 10  1  0
 10 11  2  0
 11 12  1  0
 12 13  2  0
 13 14  1  0
 14 15  2  0
 15 16  1  0
 16 17  2  0
 16 18  1  0
  8  3  1  0
 15 10  1  0
  1 19  1  0
  1 20  1  0
  1 21  1  0
  4 22  1  0
  5 23  1  0
  7 24  1  0
  8 25  1  0
 11 26  1  0
 12 27  1  0
 13 28  1  0
 14 29  1  0
 18 30  1  0
M  END
