
     RDKit          3D

 30 31  0  0  0  0  0  0  0  0999 V2000
    4.9680    0.3737   -0.9480 C   0  0  0  0  0  0  0  0  0  0  0  0
    3.9838    1.0043   -0.1382 O   0  0  0  0  0  0  0  0  0  0  0  0
    2.8892    0.2569    0.1978 C   0  0  0  0  0  0  0  0  0  0  0  0
    2.6391   -1.0569   -0.1970 C   0  0  0  0  0  0  0  0  0  0  0  0
    1.4714   -1.7060    0.2217 C   0  0  0  0  0  0  0  0  0  0  0  0
    0.5410   -1.0483    1.0313 C   0  0  0  0  0  0  0  0  0  0  0  0
    0.7975    0.2643    1.4331 C   0  0  0  0  0  0  0  0  0  0  0  0
    1.9634    0.9113    1.0138 C   0  0  0  0  0  0  0  0  0  0  0  0
   -0.9309   -1.9112    1.5516 S   0  0  0  0  0  0  0  0  0  0  0  0
   -2.2129   -0.8524    0.8852 C   0  0  0  0  0  0  0  0  0  0  0  0
   -3.0214   -0.1903    1.8260 C   0  0  0  0  0  0  0  0  0  0  0  0
   -4.0278    0.6891    1.4203 C   0  0  0  0  0  0  0  0  0  0  0  0
   -4.2451    0.9193    0.0662 C   0  0  0  0  0  0  0  0  0  0  0  0
   -3.4616    0.2623   -0.8822 C   0  0  0  0  0  0  0  0  0  0  0  0
   -2.4479   -0.6283   -0.4827 C   0  0  0  0  0  0  0  0  0  0  0  0
   -1.6860   -1.3325   -1.5414 C   0  0  0  0  0  0  0  0  0  0  0  0
   -1.3100   -2.4880   -1.5468 O   0  0  0  0  0  0  0  0  0  0  0  0
   -1.4269   -0.5133   -2.5797 O   0  0  0  0  0  0  0  0  0  0  0  0
    4.5577    0.0990   -1.9254 H   0  0  0  0  0  0  0  0  0  0  0  0
    5.3994   -0.4957   -0.4408 H   0  0  0  0  0  0  0  0  0  0  0  0
    5.7741    1.0944   -1.1164 H   0  0  0  0  0  0  0  0  0  0  0  0
    3.3274   -1.6080   -0.8287 H   0  0  0  0  0  0  0  0  0  0  0  0
    1.2882   -2.7299   -0.0999 H   0  0  0  0  0  0  0  0  0  0  0  0
    0.1003    0.7962    2.0749 H   0  0  0  0  0  0  0  0  0  0  0  0
    2.1532    1.9345    1.3292 H   0  0  0  0  0  0  0  0  0  0  0  0
   -2.8676   -0.3508    2.8920 H   0  0  0  0  0  0  0  0  0  0  0  0
   -4.6395    1.1940    2.1642 H   0  0  0  0  0  0  0  0  0  0  0  0
   -5.0273    1.6038   -0.2532 H   0  0  0  0  0  0  0  0  0  0  0  0
   -3.6506    0.4400   -1.9391 H   0  0  0  0  0  0  0  0  0  0  0  0
   -0.8983   -1.0710   -3.1878 H   0  0  0  0  0  0  0  0  0  0  0  0
  1  2  1  0
  2  3  1  0
  3  4  2  0
  4  5  1  0
  5  6  2  0
  6  7  1  0
  7  8  2  0
  6  9  1  0
  9 10  1  0
 10 11  2  0
 11 12  1  0
 12 13  2  0
 13 14  1  0
 14 15  2  0
 15 16  1  0
 16 17  2  0
 16 18  1  0
  8  3  1  0
 15 10  1  0
  1 19  1  0
  1 20  1  0
  1 21  1  0
  4 22  1  0
  5 23  1  0
  7 24  1  0
  8 25  1  0
 11 26  1  0
 12 27  1  0
 13 28  1  0
 14 29  1  0
 18 30  1  0
M  END
