
     RDKit          3D

 31 32  0  0  0  0  0  0  0  0999 V2000
    5.1218   -0.4353    1.2834 C   0  0  0  0  0  0  0  0  0  0  0  0
    4.0785    0.4922    1.5547 O   0  0  0  0  0  0  0  0  0  0  0  0
    2.9864    0.4516    0.7331 C   0  0  0  0  0  0  0  0  0  0  0  0
    2.0005    1.3969    1.0254 C   0  0  0  0  0  0  0  0  0  0  0  0
    0.8294    1.4673    0.2656 C   0  0  0  0  0  0  0  0  0  0  0  0
    0.6256    0.5793   -0.7943 C   0  0  0  0  0  0  0  0  0  0  0  0
    1.6214   -0.3570   -1.0967 C   0  0  0  0  0  0  0  0  0  0  0  0
    2.7939   -0.4247   -0.3344 C   0  0  0  0  0  0  0  0  0  0  0  0
   -0.8939    0.6787   -1.7852 S   0  0  0  0  0  4  0  0  0  0  0  0
   -0.6941   -0.2911   -2.9163 O   0  0  0  0  0  0  0  0  0  0  0  0
   -1.9022   -0.2258   -0.5669 C   0  0  0  0  0  0  0  0  0  0  0  0
   -1.7565   -1.6234   -0.4776 C   0  0  0  0  0  0  0  0  0  0  0  0
   -2.5165   -2.3714    0.4220 C   0  0  0  0  0  0  0  0  0  0  0  0
   -3.4438   -1.7365    1.2394 C   0  0  0  0  0  0  0  0  0  0  0  0
   -3.6162   -0.3545    1.1510 C   0  0  0  0  0  0  0  0  0  0  0  0
   -2.8565    0.4121    0.2464 C   0  0  0  0  0  0  0  0  0  0  0  0
   -3.0866    1.8798    0.1839 C   0  0  0  0  0  0  0  0  0  0  0  0
   -2.3189    2.7286   -0.2251 O   0  0  0  0  0  0  0  0  0  0  0  0
   -4.3064    2.2234    0.6383 O   0  0  0  0  0  0  0  0  0  0  0  0
    5.5485   -0.2699    0.2886 H   0  0  0  0  0  0  0  0  0  0  0  0
    5.9158   -0.2694    2.0179 H   0  0  0  0  0  0  0  0  0  0  0  0
    4.7724   -1.4667    1.3981 H   0  0  0  0  0  0  0  0  0  0  0  0
    2.1487    2.0908    1.8497 H   0  0  0  0  0  0  0  0  0  0  0  0
    0.0903    2.2264    0.5078 H   0  0  0  0  0  0  0  0  0  0  0  0
    1.4923   -1.0423   -1.9323 H   0  0  0  0  0  0  0  0  0  0  0  0
    3.5340   -1.1699   -0.6061 H   0  0  0  0  0  0  0  0  0  0  0  0
   -1.0465   -2.1402   -1.1219 H   0  0  0  0  0  0  0  0  0  0  0  0
   -2.3859   -3.4497    0.4773 H   0  0  0  0  0  0  0  0  0  0  0  0
   -4.0395   -2.3159    1.9410 H   0  0  0  0  0  0  0  0  0  0  0  0
   -4.3528    0.1199    1.7969 H   0  0  0  0  0  0  0  0  0  0  0  0
   -4.3431    3.1965    0.5223 H   0  0  0  0  0  0  0  0  0  0  0  0
  1  2  1  0
  2  3  1  0
  3  4  2  0
  4  5  1  0
  5  6  2  0
  6  7  1  0
  7  8  2  0
  6  9  1  0
  9 10  2  0
  9 11  1  0
 11 12  2  0
 12 13  1  0
 13 14  2  0
 14 15  1  0
 15 16  2  0
 16 17  1  0
 17 18  2  0
 17 19  1  0
  8  3  1  0
 16 11  1  0
  1 20  1  0
  1 21  1  0
  1 22  1  0
  4 23  1  0
  5 24  1  0
  7 25  1  0
  8 26  1  0
 12 27  1  0
 13 28  1  0
 14 29  1  0
 15 30  1  0
 19 31  1  0
M  END
