
     RDKit          3D

 28 29  0  0  0  0  0  0  0  0999 V2000
    5.1407    1.1010   -0.2489 C   0  0  0  0  0  0  0  0  0  0  0  0
    3.9529    1.4654    0.4435 O   0  0  0  0  0  0  0  0  0  0  0  0
    2.8417    0.7043    0.2081 C   0  0  0  0  0  0  0  0  0  0  0  0
    1.7098    1.0858    0.9349 C   0  0  0  0  0  0  0  0  0  0  0  0
    0.5021    0.3968    0.7933 C   0  0  0  0  0  0  0  0  0  0  0  0
    0.4175   -0.6781   -0.0961 C   0  0  0  0  0  0  0  0  0  0  0  0
    1.5535   -1.0756   -0.8098 C   0  0  0  0  0  0  0  0  0  0  0  0
    2.7605   -0.3827   -0.6631 C   0  0  0  0  0  0  0  0  0  0  0  0
   -0.8376   -1.4515   -0.2743 C   0  0  0  0  0  0  0  0  0  0  0  0
   -0.7707   -2.6589   -0.4917 O   0  0  0  0  0  0  0  0  0  0  0  0
   -2.1702   -0.8017   -0.1965 C   0  0  0  0  0  0  0  0  0  0  0  0
   -2.3882    0.4914   -0.6875 C   0  0  0  0  0  0  0  0  0  0  0  0
   -3.6605    1.0612   -0.6061 C   0  0  0  0  0  0  0  0  0  0  0  0
   -4.7161    0.3392   -0.0484 C   0  0  0  0  0  0  0  0  0  0  0  0
   -4.5065   -0.9572    0.4214 C   0  0  0  0  0  0  0  0  0  0  0  0
   -3.2368   -1.5309    0.3421 C   0  0  0  0  0  0  0  0  0  0  0  0
    5.0107    1.1961   -1.3320 H   0  0  0  0  0  0  0  0  0  0  0  0
    5.4630    0.0908    0.0243 H   0  0  0  0  0  0  0  0  0  0  0  0
    5.9303    1.7955    0.0536 H   0  0  0  0  0  0  0  0  0  0  0  0
    1.7741    1.9232    1.6263 H   0  0  0  0  0  0  0  0  0  0  0  0
   -0.3503    0.7007    1.3949 H   0  0  0  0  0  0  0  0  0  0  0  0
    1.5018   -1.9292   -1.4836 H   0  0  0  0  0  0  0  0  0  0  0  0
    3.6148   -0.7220   -1.2394 H   0  0  0  0  0  0  0  0  0  0  0  0
   -1.5855    1.0592   -1.1508 H   0  0  0  0  0  0  0  0  0  0  0  0
   -3.8321    2.0653   -0.9867 H   0  0  0  0  0  0  0  0  0  0  0  0
   -5.7071    0.7832    0.0099 H   0  0  0  0  0  0  0  0  0  0  0  0
   -5.3324   -1.5245    0.8434 H   0  0  0  0  0  0  0  0  0  0  0  0
   -3.0793   -2.5467    0.6993 H   0  0  0  0  0  0  0  0  0  0  0  0
  1  2  1  0
  2  3  1  0
  3  4  2  0
  4  5  1  0
  5  6  2  0
  6  7  1  0
  7  8  2  0
  6  9  1  0
  9 10  2  0
  9 11  1  0
 11 12  2  0
 12 13  1  0
 13 14  2  0
 14 15  1  0
 15 16  2  0
  8  3  1  0
 16 11  1  0
  1 17  1  0
  1 18  1  0
  1 19  1  0
  4 20  1  0
  5 21  1  0
  7 22  1  0
  8 23  1  0
 12 24  1  0
 13 25  1  0
 14 26  1  0
 15 27  1  0
 16 28  1  0
M  END
