
     RDKit          3D

 34 35  0  0  0  0  0  0  0  0999 V2000
    5.0171    1.7458   -0.7171 C   0  0  0  0  0  0  0  0  0  0  0  0
    4.2587    1.0031    0.2294 O   0  0  0  0  0  0  0  0  0  0  0  0
    3.0459    0.5277   -0.1857 C   0  0  0  0  0  0  0  0  0  0  0  0
    2.4868    0.6984   -1.4518 C   0  0  0  0  0  0  0  0  0  0  0  0
    1.2301    0.1558   -1.7423 C   0  0  0  0  0  0  0  0  0  0  0  0
    0.5191   -0.5544   -0.7674 C   0  0  0  0  0  0  0  0  0  0  0  0
    1.0858   -0.7410    0.4965 C   0  0  0  0  0  0  0  0  0  0  0  0
    2.3408   -0.1945    0.7814 C   0  0  0  0  0  0  0  0  0  0  0  0
   -0.8134   -1.1083   -1.1312 C   0  0  0  0  0  0  0  0  0  0  0  0
   -1.0848   -1.3325   -2.3080 O   0  0  0  0  0  0  0  0  0  0  0  0
   -1.8203   -1.4495   -0.1026 C   0  0  0  0  0  0  0  0  0  0  0  0
   -2.3230   -2.7595   -0.1292 C   0  0  0  0  0  0  0  0  0  0  0  0
   -3.2343   -3.1842    0.8387 C   0  0  0  0  0  0  0  0  0  0  0  0
   -3.6517   -2.3050    1.8361 C   0  0  0  0  0  0  0  0  0  0  0  0
   -3.1744   -0.9932    1.8551 C   0  0  0  0  0  0  0  0  0  0  0  0
   -2.2730   -0.5513    0.8737 C   0  0  0  0  0  0  0  0  0  0  0  0
   -1.8586    0.8648    0.9440 C   0  0  0  0  0  0  0  0  0  0  0  0
   -1.6099    1.4355    1.9928 O   0  0  0  0  0  0  0  0  0  0  0  0
   -1.8688    1.4103   -0.2932 O   0  0  0  0  0  0  0  0  0  0  0  0
   -1.4875    2.7861   -0.3249 C   0  0  0  0  0  0  0  0  0  0  0  0
    5.2807    1.1291   -1.5826 H   0  0  0  0  0  0  0  0  0  0  0  0
    4.4860    2.6529   -1.0240 H   0  0  0  0  0  0  0  0  0  0  0  0
    5.9483    2.0535   -0.2316 H   0  0  0  0  0  0  0  0  0  0  0  0
    2.9993    1.2440   -2.2372 H   0  0  0  0  0  0  0  0  0  0  0  0
    0.8043    0.2931   -2.7350 H   0  0  0  0  0  0  0  0  0  0  0  0
    0.5824   -1.3115    1.2716 H   0  0  0  0  0  0  0  0  0  0  0  0
    2.7772   -0.3355    1.7681 H   0  0  0  0  0  0  0  0  0  0  0  0
   -1.9978   -3.4530   -0.9034 H   0  0  0  0  0  0  0  0  0  0  0  0
   -3.6162   -4.2025    0.8148 H   0  0  0  0  0  0  0  0  0  0  0  0
   -4.3581   -2.6374    2.5938 H   0  0  0  0  0  0  0  0  0  0  0  0
   -3.5177   -0.3096    2.6304 H   0  0  0  0  0  0  0  0  0  0  0  0
   -0.4756    2.9138    0.0727 H   0  0  0  0  0  0  0  0  0  0  0  0
   -1.4932    3.1151   -1.3677 H   0  0  0  0  0  0  0  0  0  0  0  0
   -2.2045    3.3938    0.2357 H   0  0  0  0  0  0  0  0  0  0  0  0
  1  2  1  0
  2  3  1  0
  3  4  2  0
  4  5  1  0
  5  6  2  0
  6  7  1  0
  7  8  2  0
  6  9  1  0
  9 10  2  0
  9 11  1  0
 11 12  2  0
 12 13  1  0
 13 14  2  0
 14 15  1  0
 15 16  2  0
 16 17  1  0
 17 18  2  0
 17 19  1  0
 19 20  1  0
  8  3  1  0
 16 11  1  0
  1 21  1  0
  1 22  1  0
  1 23  1  0
  4 24  1  0
  5 25  1  0
  7 26  1  0
  8 27  1  0
 12 28  1  0
 13 29  1  0
 14 30  1  0
 15 31  1  0
 20 32  1  0
 20 33  1  0
 20 34  1  0
M  END
