
     RDKit          3D

 57 57  0  0  0  0  0  0  0  0999 V2000
   -5.3678    0.7514    2.4617 C   0  0  0  0  0  0  0  0  0  0  0  0
   -4.2588    1.3812    1.8201 O   0  0  0  0  0  0  0  0  0  0  0  0
   -3.2904    0.5098    1.4090 C   0  0  0  0  0  0  0  0  0  0  0  0
   -3.3431   -0.7079    1.5491 O   0  0  0  0  0  0  0  0  0  0  0  0
   -2.1255    1.2741    0.7606 C   0  0  0  0  0  0  0  0  0  0  0  0
   -2.5625    2.0132   -0.5138 C   0  0  0  0  0  0  0  0  0  0  0  0
   -3.0985    1.1315   -1.6195 C   0  0  0  0  0  0  0  0  0  0  0  0
   -4.4722    0.8685   -1.7175 C   0  0  0  0  0  0  0  0  0  0  0  0
   -4.9641    0.0406   -2.7277 C   0  0  0  0  0  0  0  0  0  0  0  0
   -4.0895   -0.5310   -3.6497 C   0  0  0  0  0  0  0  0  0  0  0  0
   -2.7227   -0.2729   -3.5647 C   0  0  0  0  0  0  0  0  0  0  0  0
   -2.2288    0.5563   -2.5567 C   0  0  0  0  0  0  0  0  0  0  0  0
   -1.0083    0.3557    0.5145 N   0  0  0  0  0  0  0  0  0  0  0  0
   -0.1285    0.0547    1.5323 C   0  0  0  0  0  0  0  0  0  0  0  0
   -0.0986    0.6751    2.5942 O   0  0  0  0  0  0  0  0  0  0  0  0
    0.8160   -1.1396    1.2431 C   0  0  0  0  0  0  0  0  0  0  0  0
    0.1310   -2.4338    1.6941 C   0  0  0  0  0  0  0  0  0  0  0  0
   -0.9686   -2.8103    0.7442 C   0  0  0  0  0  0  0  0  0  0  0  0
   -1.1982   -2.2967   -0.3400 O   0  0  0  0  0  0  0  0  0  0  0  0
   -1.7267   -3.8197    1.2090 O   0  0  0  0  0  0  0  0  0  0  0  0
    2.0748   -0.9705    2.0212 N   0  0  0  0  0  0  0  0  0  0  0  0
    2.9782    0.0227    1.4220 C   0  0  0  0  0  0  0  0  0  0  0  0
    3.8010   -0.5826    0.2748 C   0  0  0  0  0  0  0  0  0  0  0  0
    4.7914    0.3901   -0.4223 C   0  0  0  0  0  0  0  0  0  0  0  0
    5.8228    0.9490    0.5712 C   0  0  0  0  0  0  0  0  0  0  0  0
    5.5429   -0.3927   -1.5178 C   0  0  0  0  0  0  0  0  0  0  0  0
    4.0427    1.5582   -1.0868 C   0  0  0  0  0  0  0  0  0  0  0  0
   -5.0399    0.2123    3.3561 H   0  0  0  0  0  0  0  0  0  0  0  0
   -6.0706    1.5320    2.7667 H   0  0  0  0  0  0  0  0  0  0  0  0
   -5.8789    0.0778    1.7665 H   0  0  0  0  0  0  0  0  0  0  0  0
   -1.7885    2.0169    1.4943 H   0  0  0  0  0  0  0  0  0  0  0  0
   -3.3252    2.7626   -0.2646 H   0  0  0  0  0  0  0  0  0  0  0  0
   -1.7118    2.5850   -0.9085 H   0  0  0  0  0  0  0  0  0  0  0  0
   -5.1724    1.3074   -1.0098 H   0  0  0  0  0  0  0  0  0  0  0  0
   -6.0304   -0.1595   -2.7952 H   0  0  0  0  0  0  0  0  0  0  0  0
   -4.4728   -1.1777   -4.4348 H   0  0  0  0  0  0  0  0  0  0  0  0
   -2.0395   -0.7201   -4.2822 H   0  0  0  0  0  0  0  0  0  0  0  0
   -1.1584    0.7467   -2.5070 H   0  0  0  0  0  0  0  0  0  0  0  0
   -1.2067   -0.4060   -0.1386 H   0  0  0  0  0  0  0  0  0  0  0  0
    1.0345   -1.1786    0.1705 H   0  0  0  0  0  0  0  0  0  0  0  0
   -0.2968   -2.3173    2.6969 H   0  0  0  0  0  0  0  0  0  0  0  0
    0.8479   -3.2632    1.7041 H   0  0  0  0  0  0  0  0  0  0  0  0
   -2.4544   -3.9008    0.5572 H   0  0  0  0  0  0  0  0  0  0  0  0
    1.7929   -0.6121    2.9419 H   0  0  0  0  0  0  0  0  0  0  0  0
    3.6629    0.3476    2.2129 H   0  0  0  0  0  0  0  0  0  0  0  0
    2.4249    0.9109    1.1008 H   0  0  0  0  0  0  0  0  0  0  0  0
    4.3636   -1.4408    0.6676 H   0  0  0  0  0  0  0  0  0  0  0  0
    3.1256   -0.9890   -0.4885 H   0  0  0  0  0  0  0  0  0  0  0  0
    6.3444    0.1406    1.0954 H   0  0  0  0  0  0  0  0  0  0  0  0
    6.5792    1.5516    0.0555 H   0  0  0  0  0  0  0  0  0  0  0  0
    5.3557    1.5937    1.3230 H   0  0  0  0  0  0  0  0  0  0  0  0
    6.2481    0.2524   -2.0543 H   0  0  0  0  0  0  0  0  0  0  0  0
    6.1135   -1.2245   -1.0903 H   0  0  0  0  0  0  0  0  0  0  0  0
    4.8475   -0.8083   -2.2556 H   0  0  0  0  0  0  0  0  0  0  0  0
    4.7278    2.1837   -1.6708 H   0  0  0  0  0  0  0  0  0  0  0  0
    3.2650    1.1930   -1.7671 H   0  0  0  0  0  0  0  0  0  0  0  0
    3.5649    2.2086   -0.3470 H   0  0  0  0  0  0  0  0  0  0  0  0
  1  2  1  0
  2  3  1  0
  3  4  2  0
  3  5  1  0
  5  6  1  0
  6  7  1  0
  7  8  2  0
  8  9  1  0
  9 10  2  0
 10 11  1  0
 11 12  2  0
  5 13  1  0
 13 14  1  0
 14 15  2  0
 14 16  1  0
 16 17  1  0
 17 18  1  0
 18 19  2  0
 18 20  1  0
 16 21  1  0
 21 22  1  0
 22 23  1  0
 23 24  1  0
 24 25  1  0
 24 26  1  0
 24 27  1  0
 12  7  1  0
  1 28  1  0
  1 29  1  0
  1 30  1  0
  5 31  1  0
  6 32  1  0
  6 33  1  0
  8 34  1  0
  9 35  1  0
 10 36  1  0
 11 37  1  0
 12 38  1  0
 13 39  1  0
 16 40  1  0
 17 41  1  0
 17 42  1  0
 20 43  1  0
 21 44  1  0
 22 45  1  0
 22 46  1  0
 23 47  1  0
 23 48  1  0
 25 49  1  0
 25 50  1  0
 25 51  1  0
 26 52  1  0
 26 53  1  0
 26 54  1  0
 27 55  1  0
 27 56  1  0
 27 57  1  0
M  END
