
     RDKit          3D

 34 35  0  0  0  0  0  0  0  0999 V2000
    5.6709   -0.5548    0.6418 C   0  0  0  0  0  0  0  0  0  0  0  0
    4.8172   -0.3423   -0.4753 O   0  0  0  0  0  0  0  0  0  0  0  0
    3.5149   -0.0243   -0.2035 C   0  0  0  0  0  0  0  0  0  0  0  0
    2.7200    0.1953   -1.3297 C   0  0  0  0  0  0  0  0  0  0  0  0
    1.3693    0.5280   -1.1965 C   0  0  0  0  0  0  0  0  0  0  0  0
    0.7841    0.6471    0.0739 C   0  0  0  0  0  0  0  0  0  0  0  0
    1.5911    0.4222    1.1995 C   0  0  0  0  0  0  0  0  0  0  0  0
    2.9446    0.0902    1.0633 C   0  0  0  0  0  0  0  0  0  0  0  0
   -0.6926    0.9989    0.1952 C   0  0  0  0  0  0  0  0  0  0  0  0
   -1.6783   -0.1079   -0.1786 C   0  0  0  0  0  0  0  0  0  0  0  0
   -1.3160   -1.4646   -0.0641 C   0  0  0  0  0  0  0  0  0  0  0  0
   -2.2063   -2.4860   -0.3991 C   0  0  0  0  0  0  0  0  0  0  0  0
   -3.4859   -2.1758   -0.8409 C   0  0  0  0  0  0  0  0  0  0  0  0
   -3.8822   -0.8436   -0.9348 C   0  0  0  0  0  0  0  0  0  0  0  0
   -2.9981    0.1990   -0.6002 C   0  0  0  0  0  0  0  0  0  0  0  0
   -3.5065    1.6167   -0.6601 C   0  0  0  0  0  0  0  0  0  0  0  0
   -3.5201    2.1506    0.6603 O   0  0  0  0  0  0  0  0  0  0  0  0
   -0.9966    1.4432    1.5170 O   0  0  0  0  0  0  0  0  0  0  0  0
    5.3352   -1.4097    1.2381 H   0  0  0  0  0  0  0  0  0  0  0  0
    6.6694   -0.7879    0.2596 H   0  0  0  0  0  0  0  0  0  0  0  0
    5.7521    0.3488    1.2550 H   0  0  0  0  0  0  0  0  0  0  0  0
    3.1567    0.1058   -2.3213 H   0  0  0  0  0  0  0  0  0  0  0  0
    0.7741    0.6882   -2.0928 H   0  0  0  0  0  0  0  0  0  0  0  0
    1.1654    0.5053    2.1983 H   0  0  0  0  0  0  0  0  0  0  0  0
    3.5197   -0.0708    1.9686 H   0  0  0  0  0  0  0  0  0  0  0  0
   -0.8367    1.8609   -0.4677 H   0  0  0  0  0  0  0  0  0  0  0  0
   -0.3264   -1.7458    0.2922 H   0  0  0  0  0  0  0  0  0  0  0  0
   -1.8962   -3.5240   -0.3093 H   0  0  0  0  0  0  0  0  0  0  0  0
   -4.1792   -2.9715   -1.1006 H   0  0  0  0  0  0  0  0  0  0  0  0
   -4.8959   -0.6240   -1.2643 H   0  0  0  0  0  0  0  0  0  0  0  0
   -2.8711    2.2377   -1.2985 H   0  0  0  0  0  0  0  0  0  0  0  0
   -4.5240    1.6720   -1.0615 H   0  0  0  0  0  0  0  0  0  0  0  0
   -4.0958    1.5592    1.1817 H   0  0  0  0  0  0  0  0  0  0  0  0
   -1.8772    1.8639    1.4447 H   0  0  0  0  0  0  0  0  0  0  0  0
  1  2  1  0
  2  3  1  0
  3  4  2  0
  4  5  1  0
  5  6  2  0
  6  7  1  0
  7  8  2  0
  6  9  1  0
  9 10  1  0
 10 11  2  0
 11 12  1  0
 12 13  2  0
 13 14  1  0
 14 15  2  0
 15 16  1  0
 16 17  1  0
  9 18  1  0
  8  3  1  0
 15 10  1  0
  1 19  1  0
  1 20  1  0
  1 21  1  0
  4 22  1  0
  5 23  1  0
  7 24  1  0
  8 25  1  0
  9 26  1  0
 11 27  1  0
 12 28  1  0
 13 29  1  0
 14 30  1  0
 16 31  1  0
 16 32  1  0
 17 33  1  0
 18 34  1  0
M  END
