
     RDKit          3D

 32 33  0  0  0  0  0  0  0  0999 V2000
    5.8988    0.4453    0.6600 C   0  0  0  0  0  0  0  0  0  0  0  0
    5.1316   -0.7012    0.3150 O   0  0  0  0  0  0  0  0  0  0  0  0
    3.7730   -0.5433    0.2714 C   0  0  0  0  0  0  0  0  0  0  0  0
    3.0671   -1.6832   -0.1311 C   0  0  0  0  0  0  0  0  0  0  0  0
    1.6748   -1.6640   -0.2212 C   0  0  0  0  0  0  0  0  0  0  0  0
    0.9938   -0.4901    0.0833 C   0  0  0  0  0  0  0  0  0  0  0  0
    1.6767    0.6476    0.5086 C   0  0  0  0  0  0  0  0  0  0  0  0
    3.0717    0.6217    0.5944 C   0  0  0  0  0  0  0  0  0  0  0  0
   -0.4023   -0.5082    0.0381 O   0  0  0  0  0  0  0  0  0  0  0  0
   -0.9407    0.2930   -0.9498 C   0  0  0  0  0  0  0  0  0  0  0  0
   -0.3679    0.9237   -1.8231 O   0  0  0  0  0  0  0  0  0  0  0  0
   -2.4066    0.1438   -0.8947 C   0  0  0  0  0  0  0  0  0  0  0  0
   -3.0405   -0.3034   -2.0643 C   0  0  0  0  0  0  0  0  0  0  0  0
   -4.4186   -0.5197   -2.0753 C   0  0  0  0  0  0  0  0  0  0  0  0
   -5.1687   -0.2863   -0.9241 C   0  0  0  0  0  0  0  0  0  0  0  0
   -4.5453    0.1786    0.2367 C   0  0  0  0  0  0  0  0  0  0  0  0
   -3.1592    0.4045    0.2574 C   0  0  0  0  0  0  0  0  0  0  0  0
   -2.5309    0.9846    1.4642 C   0  0  0  0  0  0  0  0  0  0  0  0
   -1.5513    1.7027    1.4946 O   0  0  0  0  0  0  0  0  0  0  0  0
   -3.1727    0.6218    2.5888 O   0  0  0  0  0  0  0  0  0  0  0  0
    5.7435    1.2569   -0.0586 H   0  0  0  0  0  0  0  0  0  0  0  0
    5.6796    0.7730    1.6816 H   0  0  0  0  0  0  0  0  0  0  0  0
    6.9556    0.1642    0.6208 H   0  0  0  0  0  0  0  0  0  0  0  0
    3.6104   -2.5926   -0.3756 H   0  0  0  0  0  0  0  0  0  0  0  0
    1.1347   -2.5537   -0.5277 H   0  0  0  0  0  0  0  0  0  0  0  0
    1.1312    1.5515    0.7667 H   0  0  0  0  0  0  0  0  0  0  0  0
    3.5768    1.5251    0.9181 H   0  0  0  0  0  0  0  0  0  0  0  0
   -2.4579   -0.4899   -2.9653 H   0  0  0  0  0  0  0  0  0  0  0  0
   -4.9066   -0.8710   -2.9820 H   0  0  0  0  0  0  0  0  0  0  0  0
   -6.2437   -0.4541   -0.9328 H   0  0  0  0  0  0  0  0  0  0  0  0
   -5.1512    0.3796    1.1181 H   0  0  0  0  0  0  0  0  0  0  0  0
   -2.6551    1.0433    3.3076 H   0  0  0  0  0  0  0  0  0  0  0  0
  1  2  1  0
  2  3  1  0
  3  4  2  0
  4  5  1  0
  5  6  2  0
  6  7  1  0
  7  8  2  0
  6  9  1  0
  9 10  1  0
 10 11  2  0
 10 12  1  0
 12 13  2  0
 13 14  1  0
 14 15  2  0
 15 16  1  0
 16 17  2  0
 17 18  1  0
 18 19  2  0
 18 20  1  0
  8  3  1  0
 17 12  1  0
  1 21  1  0
  1 22  1  0
  1 23  1  0
  4 24  1  0
  5 25  1  0
  7 26  1  0
  8 27  1  0
 13 28  1  0
 14 29  1  0
 15 30  1  0
 16 31  1  0
 20 32  1  0
M  END
