
     RDKit          3D

 30 32  0  0  0  0  0  0  0  0999 V2000
    4.9075    0.7712   -1.1733 C   0  0  0  0  0  0  0  0  0  0  0  0
    4.2243   -0.4634   -0.9965 O   0  0  0  0  0  0  0  0  0  0  0  0
    3.0050   -0.4110   -0.3797 C   0  0  0  0  0  0  0  0  0  0  0  0
    2.3871   -1.6497   -0.2016 C   0  0  0  0  0  0  0  0  0  0  0  0
    1.1366   -1.7428    0.4150 C   0  0  0  0  0  0  0  0  0  0  0  0
    0.4784   -0.5911    0.8703 C   0  0  0  0  0  0  0  0  0  0  0  0
    1.1039    0.6511    0.6818 C   0  0  0  0  0  0  0  0  0  0  0  0
    2.3576    0.7405    0.0645 C   0  0  0  0  0  0  0  0  0  0  0  0
   -0.8878   -0.7088    1.5089 C   0  0  0  0  0  0  0  0  0  0  0  0
   -1.0452    0.2595    2.5754 O   0  0  0  0  0  0  0  0  0  0  0  0
   -2.1461    1.0469    2.3948 C   0  0  0  0  0  0  0  0  0  0  0  0
   -2.5316    1.9332    3.1300 O   0  0  0  0  0  0  0  0  0  0  0  0
   -2.7651    0.6273    1.1459 C   0  0  0  0  0  0  0  0  0  0  0  0
   -2.0239   -0.4024    0.6034 C   0  0  0  0  0  0  0  0  0  0  0  0
   -2.4073   -0.9821   -0.5958 C   0  0  0  0  0  0  0  0  0  0  0  0
   -3.5515   -0.4914   -1.2345 C   0  0  0  0  0  0  0  0  0  0  0  0
   -4.2949    0.5599   -0.6712 C   0  0  0  0  0  0  0  0  0  0  0  0
   -3.9012    1.1332    0.5381 C   0  0  0  0  0  0  0  0  0  0  0  0
    5.8624    0.5575   -1.6632 H   0  0  0  0  0  0  0  0  0  0  0  0
    4.3422    1.4448   -1.8259 H   0  0  0  0  0  0  0  0  0  0  0  0
    5.1260    1.2438   -0.2100 H   0  0  0  0  0  0  0  0  0  0  0  0
    2.8866   -2.5522   -0.5462 H   0  0  0  0  0  0  0  0  0  0  0  0
    0.6845   -2.7248    0.5369 H   0  0  0  0  0  0  0  0  0  0  0  0
    0.6219    1.5672    1.0192 H   0  0  0  0  0  0  0  0  0  0  0  0
    2.7968    1.7257   -0.0520 H   0  0  0  0  0  0  0  0  0  0  0  0
   -1.0172   -1.6974    1.9654 H   0  0  0  0  0  0  0  0  0  0  0  0
   -1.8364   -1.7928   -1.0393 H   0  0  0  0  0  0  0  0  0  0  0  0
   -3.8702   -0.9268   -2.1797 H   0  0  0  0  0  0  0  0  0  0  0  0
   -5.1813    0.9286   -1.1830 H   0  0  0  0  0  0  0  0  0  0  0  0
   -4.4612    1.9465    0.9888 H   0  0  0  0  0  0  0  0  0  0  0  0
  1  2  1  0
  2  3  1  0
  3  4  2  0
  4  5  1  0
  5  6  2  0
  6  7  1  0
  7  8  2  0
  6  9  1  0
  9 10  1  0
 10 11  1  0
 11 12  2  0
 11 13  1  0
 13 14  2  0
 14 15  1  0
 15 16  2  0
 16 17  1  0
 17 18  2  0
  8  3  1  0
 14  9  1  0
 18 13  1  0
  1 19  1  0
  1 20  1  0
  1 21  1  0
  4 22  1  0
  5 23  1  0
  7 24  1  0
  8 25  1  0
  9 26  1  0
 15 27  1  0
 16 28  1  0
 17 29  1  0
 18 30  1  0
M  END
