
     RDKit          3D

 28 28  0  0  0  0  0  0  0  0999 V2000
   -4.8040    0.7193   -0.9024 C   0  0  0  0  0  0  0  0  0  0  0  0
   -4.3292   -0.1098    0.1507 O   0  0  0  0  0  0  0  0  0  0  0  0
   -2.9764   -0.2844    0.2418 C   0  0  0  0  0  0  0  0  0  0  0  0
   -2.5650   -1.1143    1.2880 C   0  0  0  0  0  0  0  0  0  0  0  0
   -1.2094   -1.3783    1.4978 C   0  0  0  0  0  0  0  0  0  0  0  0
   -0.2474   -0.7994    0.6648 C   0  0  0  0  0  0  0  0  0  0  0  0
   -0.6561    0.0167   -0.3965 C   0  0  0  0  0  0  0  0  0  0  0  0
   -2.0171    0.2770   -0.6025 C   0  0  0  0  0  0  0  0  0  0  0  0
    1.1841   -1.1130    0.9141 C   0  0  0  0  0  0  0  0  0  0  0  0
    1.4998   -2.1947    1.4009 O   0  0  0  0  0  0  0  0  0  0  0  0
    2.2186   -0.0878    0.5834 C   0  0  0  0  0  0  0  0  0  0  0  0
    3.3329   -0.5793    0.0125 C   0  0  0  0  0  0  0  0  0  0  0  0
    4.4743    0.2518   -0.3889 C   0  0  0  0  0  0  0  0  0  0  0  0
    4.5495    1.4643   -0.3998 O   0  0  0  0  0  0  0  0  0  0  0  0
    5.4902   -0.5280   -0.7907 O   0  0  0  0  0  0  0  0  0  0  0  0
    1.9813    1.3292    1.0079 C   0  0  0  0  0  0  0  0  0  0  0  0
   -4.4304    1.7433   -0.7976 H   0  0  0  0  0  0  0  0  0  0  0  0
   -4.5449    0.3015   -1.8809 H   0  0  0  0  0  0  0  0  0  0  0  0
   -5.8956    0.7546   -0.8340 H   0  0  0  0  0  0  0  0  0  0  0  0
   -3.3077   -1.5637    1.9435 H   0  0  0  0  0  0  0  0  0  0  0  0
   -0.9094   -2.0347    2.3123 H   0  0  0  0  0  0  0  0  0  0  0  0
    0.0666    0.4452   -1.0859 H   0  0  0  0  0  0  0  0  0  0  0  0
   -2.2938    0.9155   -1.4353 H   0  0  0  0  0  0  0  0  0  0  0  0
    3.4359   -1.6409   -0.1962 H   0  0  0  0  0  0  0  0  0  0  0  0
    6.1981    0.1051   -1.0313 H   0  0  0  0  0  0  0  0  0  0  0  0
    1.6773    1.9450    0.1561 H   0  0  0  0  0  0  0  0  0  0  0  0
    1.2000    1.3922    1.7729 H   0  0  0  0  0  0  0  0  0  0  0  0
    2.8775    1.7677    1.4581 H   0  0  0  0  0  0  0  0  0  0  0  0
  1  2  1  0
  2  3  1  0
  3  4  2  0
  4  5  1  0
  5  6  2  0
  6  7  1  0
  7  8  2  0
  6  9  1  0
  9 10  2  0
  9 11  1  0
 11 12  2  3
 12 13  1  0
 13 14  2  0
 13 15  1  0
 11 16  1  0
  8  3  1  0
  1 17  1  0
  1 18  1  0
  1 19  1  0
  4 20  1  0
  5 21  1  0
  7 22  1  0
  8 23  1  0
 12 24  1  0
 15 25  1  0
 16 26  1  0
 16 27  1  0
 16 28  1  0
M  END
