
     RDKit          3D

 47 50  0  0  0  0  0  0  0  0999 V2000
    6.3254   -0.6424   -0.2691 C   0  0  0  0  0  0  0  0  0  0  0  0
    5.5473   -0.2827    0.8665 O   0  0  0  0  0  0  0  0  0  0  0  0
    4.1871   -0.2694    0.6976 C   0  0  0  0  0  0  0  0  0  0  0  0
    3.4949   -0.5867   -0.4675 C   0  0  0  0  0  0  0  0  0  0  0  0
    2.0843   -0.5384   -0.5065 C   0  0  0  0  0  0  0  0  0  0  0  0
    1.4068   -0.8883   -1.8110 C   0  0  0  0  0  0  0  0  0  0  0  0
   -0.0910   -1.1400   -1.6742 C   0  0  0  0  0  0  0  0  0  0  0  0
   -0.7270   -0.0317   -0.8317 C   0  0  0  0  0  0  0  0  0  0  0  0
   -0.1759   -0.1010    0.6145 C   0  0  0  0  0  0  0  0  0  0  0  0
    1.3522   -0.1299    0.6315 C   0  0  0  0  0  0  0  0  0  0  0  0
    2.0639    0.1599    1.8065 C   0  0  0  0  0  0  0  0  0  0  0  0
    3.4535    0.0953    1.8259 C   0  0  0  0  0  0  0  0  0  0  0  0
    4.0970    0.3985    2.9963 O   0  0  0  0  0  0  0  0  0  0  0  0
   -0.8073    1.0301    1.4510 C   0  0  0  0  0  0  0  0  0  0  0  0
   -2.3368    0.9675    1.4325 C   0  0  0  0  0  0  0  0  0  0  0  0
   -2.9353    0.9878    0.0100 C   0  0  0  0  0  0  0  0  0  0  0  0
   -2.2645   -0.0600   -0.9002 C   0  0  0  0  0  0  0  0  0  0  0  0
   -2.9259   -1.3858   -0.4958 C   0  0  0  0  0  0  0  0  0  0  0  0
   -4.3245   -1.0212    0.0035 C   0  0  0  0  0  0  0  0  0  0  0  0
   -4.3961    0.5047    0.0208 C   0  0  0  0  0  0  0  0  0  0  0  0
   -2.8501    2.4032   -0.5798 C   0  0  0  0  0  0  0  0  0  0  0  0
    7.3795   -0.5992    0.0216 H   0  0  0  0  0  0  0  0  0  0  0  0
    6.1773    0.0668   -1.0902 H   0  0  0  0  0  0  0  0  0  0  0  0
    6.1095   -1.6679   -0.5864 H   0  0  0  0  0  0  0  0  0  0  0  0
    4.0223   -0.8820   -1.3692 H   0  0  0  0  0  0  0  0  0  0  0  0
    1.8730   -1.7814   -2.2443 H   0  0  0  0  0  0  0  0  0  0  0  0
    1.5712   -0.0584   -2.5100 H   0  0  0  0  0  0  0  0  0  0  0  0
   -0.2597   -2.1184   -1.2067 H   0  0  0  0  0  0  0  0  0  0  0  0
   -0.5414   -1.1791   -2.6729 H   0  0  0  0  0  0  0  0  0  0  0  0
   -0.4118    0.9290   -1.2669 H   0  0  0  0  0  0  0  0  0  0  0  0
   -0.4808   -1.0558    1.0646 H   0  0  0  0  0  0  0  0  0  0  0  0
    1.5573    0.4304    2.7273 H   0  0  0  0  0  0  0  0  0  0  0  0
    5.0463    0.2927    2.7920 H   0  0  0  0  0  0  0  0  0  0  0  0
   -0.4955    0.9612    2.4988 H   0  0  0  0  0  0  0  0  0  0  0  0
   -0.4607    2.0062    1.0905 H   0  0  0  0  0  0  0  0  0  0  0  0
   -2.6440    0.0577    1.9642 H   0  0  0  0  0  0  0  0  0  0  0  0
   -2.7386    1.8030    2.0198 H   0  0  0  0  0  0  0  0  0  0  0  0
   -2.5568    0.1388   -1.9424 H   0  0  0  0  0  0  0  0  0  0  0  0
   -2.3794   -1.8989    0.3016 H   0  0  0  0  0  0  0  0  0  0  0  0
   -2.9769   -2.0770   -1.3440 H   0  0  0  0  0  0  0  0  0  0  0  0
   -4.4823   -1.4279    1.0087 H   0  0  0  0  0  0  0  0  0  0  0  0
   -5.1033   -1.4409   -0.6419 H   0  0  0  0  0  0  0  0  0  0  0  0
   -4.9225    0.8424   -0.8811 H   0  0  0  0  0  0  0  0  0  0  0  0
   -4.9603    0.8751    0.8833 H   0  0  0  0  0  0  0  0  0  0  0  0
   -3.2734    2.4388   -1.5900 H   0  0  0  0  0  0  0  0  0  0  0  0
   -3.4093    3.1164    0.0361 H   0  0  0  0  0  0  0  0  0  0  0  0
   -1.8178    2.7590   -0.6483 H   0  0  0  0  0  0  0  0  0  0  0  0
  1  2  1  0
  2  3  1  0
  3  4  2  0
  4  5  1  0
  5  6  1  0
  6  7  1  0
  7  8  1  0
  8  9  1  0
  9 10  1  0
 10 11  1  0
 11 12  2  0
 12 13  1  0
  9 14  1  0
 14 15  1  0
 15 16  1  0
 16 17  1  0
 17 18  1  0
 18 19  1  0
 19 20  1  0
 16 21  1  0
 12  3  1  0
 20 16  1  0
 10  5  2  0
 17  8  1  0
  1 22  1  0
  1 23  1  0
  1 24  1  0
  4 25  1  0
  6 26  1  0
  6 27  1  0
  7 28  1  0
  7 29  1  0
  8 30  1  0
  9 31  1  0
 11 32  1  0
 13 33  1  0
 14 34  1  0
 14 35  1  0
 15 36  1  0
 15 37  1  0
 17 38  1  0
 18 39  1  0
 18 40  1  0
 19 41  1  0
 19 42  1  0
 20 43  1  0
 20 44  1  0
 21 45  1  0
 21 46  1  0
 21 47  1  0
M  END
