
     RDKit          3D

 34 37  0  0  0  0  0  0  0  0999 V2000
    4.9815   -0.2695   -1.5577 C   0  0  0  0  0  0  0  0  0  0  0  0
    4.6805    0.2904   -0.2839 O   0  0  0  0  0  0  0  0  0  0  0  0
    3.3495    0.4300    0.0221 C   0  0  0  0  0  0  0  0  0  0  0  0
    2.2780    0.0818   -0.8007 C   0  0  0  0  0  0  0  0  0  0  0  0
    0.9998    0.3031   -0.3204 C   0  0  0  0  0  0  0  0  0  0  0  0
   -0.1433   -0.0015   -1.0167 O   0  0  0  0  0  0  0  0  0  0  0  0
   -1.1956    0.6693   -0.2680 C   0  0  0  0  0  0  0  0  0  0  0  0
   -0.7079    0.8787    1.1749 C   0  0  0  0  0  0  0  0  0  0  0  0
    0.7564    0.8338    0.9397 C   0  0  0  0  0  0  0  0  0  0  0  0
    1.8006    1.1830    1.7737 C   0  0  0  0  0  0  0  0  0  0  0  0
    3.0926    0.9782    1.2972 C   0  0  0  0  0  0  0  0  0  0  0  0
    4.1374    1.3208    2.1144 O   0  0  0  0  0  0  0  0  0  0  0  0
   -1.1974   -0.2511    2.0679 C   0  0  0  0  0  0  0  0  0  0  0  0
   -2.6262   -0.3300    2.0630 O   0  0  0  0  0  0  0  0  0  0  0  0
   -3.1317   -0.5390    0.8064 C   0  0  0  0  0  0  0  0  0  0  0  0
   -2.4798   -0.1099   -0.3546 C   0  0  0  0  0  0  0  0  0  0  0  0
   -3.0695   -0.3738   -1.5999 C   0  0  0  0  0  0  0  0  0  0  0  0
   -4.2948   -1.0382   -1.6763 C   0  0  0  0  0  0  0  0  0  0  0  0
   -4.9461   -1.4367   -0.5102 C   0  0  0  0  0  0  0  0  0  0  0  0
   -4.3664   -1.1823    0.7321 C   0  0  0  0  0  0  0  0  0  0  0  0
    4.5935   -1.2900   -1.6418 H   0  0  0  0  0  0  0  0  0  0  0  0
    4.6059    0.3659   -2.3665 H   0  0  0  0  0  0  0  0  0  0  0  0
    6.0706   -0.3186   -1.6513 H   0  0  0  0  0  0  0  0  0  0  0  0
    2.4018   -0.3463   -1.7868 H   0  0  0  0  0  0  0  0  0  0  0  0
   -1.3507    1.6484   -0.7457 H   0  0  0  0  0  0  0  0  0  0  0  0
   -1.0553    1.8488    1.5484 H   0  0  0  0  0  0  0  0  0  0  0  0
    1.6350    1.5939    2.7632 H   0  0  0  0  0  0  0  0  0  0  0  0
    4.9398    1.0981    1.6030 H   0  0  0  0  0  0  0  0  0  0  0  0
   -0.8839   -0.0708    3.1028 H   0  0  0  0  0  0  0  0  0  0  0  0
   -0.7807   -1.2286    1.7862 H   0  0  0  0  0  0  0  0  0  0  0  0
   -2.5753   -0.0564   -2.5160 H   0  0  0  0  0  0  0  0  0  0  0  0
   -4.7443   -1.2387   -2.6456 H   0  0  0  0  0  0  0  0  0  0  0  0
   -5.9036   -1.9475   -0.5679 H   0  0  0  0  0  0  0  0  0  0  0  0
   -4.8704   -1.4952    1.6423 H   0  0  0  0  0  0  0  0  0  0  0  0
  1  2  1  0
  2  3  1  0
  3  4  2  0
  4  5  1  0
  5  6  1  0
  6  7  1  0
  7  8  1  0
  8  9  1  0
  9 10  1  0
 10 11  2  0
 11 12  1  0
  8 13  1  0
 13 14  1  0
 14 15  1  0
 15 16  2  0
 16 17  1  0
 17 18  2  0
 18 19  1  0
 19 20  2  0
 11  3  1  0
 20 15  1  0
  9  5  2  0
 16  7  1  0
  1 21  1  0
  1 22  1  0
  1 23  1  0
  4 24  1  0
  7 25  1  0
  8 26  1  0
 10 27  1  0
 12 28  1  0
 13 29  1  0
 13 30  1  0
 17 31  1  0
 18 32  1  0
 19 33  1  0
 20 34  1  0
M  END
