
     RDKit          3D

 37 40  0  0  0  0  0  0  0  0999 V2000
    5.9335   -1.0444   -0.1071 C   0  0  0  0  0  0  0  0  0  0  0  0
    5.0977   -0.6358   -1.1835 O   0  0  0  0  0  0  0  0  0  0  0  0
    3.7860   -0.3725   -0.8752 C   0  0  0  0  0  0  0  0  0  0  0  0
    3.2034   -0.4780    0.3884 C   0  0  0  0  0  0  0  0  0  0  0  0
    1.8549   -0.1650    0.5230 C   0  0  0  0  0  0  0  0  0  0  0  0
    1.0259   -0.2590    1.7646 C   0  0  0  0  0  0  0  0  0  0  0  0
   -0.1828    0.6062    1.3796 C   0  0  0  0  0  0  0  0  0  0  0  0
   -0.3714    0.4703   -0.1565 C   0  0  0  0  0  0  0  0  0  0  0  0
    1.0719    0.2391   -0.5721 C   0  0  0  0  0  0  0  0  0  0  0  0
    1.6417    0.3296   -1.8360 C   0  0  0  0  0  0  0  0  0  0  0  0
    2.9939    0.0290   -1.9683 C   0  0  0  0  0  0  0  0  0  0  0  0
    3.5542    0.1261   -3.2153 O   0  0  0  0  0  0  0  0  0  0  0  0
   -1.0775    1.9616   -0.9111 S   0  0  0  0  0  0  0  0  0  0  0  0
   -2.6026    2.0377    0.0348 C   0  0  0  0  0  0  0  0  0  0  0  0
   -3.4821    0.8155    0.0077 C   0  0  0  0  0  0  0  0  0  0  0  0
   -3.0404   -0.4983   -0.2181 C   0  0  0  0  0  0  0  0  0  0  0  0
   -1.3671   -1.0019   -0.5922 S   0  0  0  0  0  0  0  0  0  0  0  0
   -3.9748   -1.5509   -0.1849 C   0  0  0  0  0  0  0  0  0  0  0  0
   -5.3227   -1.3205    0.0882 C   0  0  0  0  0  0  0  0  0  0  0  0
   -5.7610   -0.0281    0.3324 C   0  0  0  0  0  0  0  0  0  0  0  0
   -4.8498    1.0262    0.2959 C   0  0  0  0  0  0  0  0  0  0  0  0
    6.9382   -1.2084   -0.5084 H   0  0  0  0  0  0  0  0  0  0  0  0
    5.5884   -1.9903    0.3232 H   0  0  0  0  0  0  0  0  0  0  0  0
    6.0037   -0.2631    0.6570 H   0  0  0  0  0  0  0  0  0  0  0  0
    3.7605   -0.7981    1.2604 H   0  0  0  0  0  0  0  0  0  0  0  0
    0.7340   -1.2978    1.9492 H   0  0  0  0  0  0  0  0  0  0  0  0
    1.5405    0.1451    2.6410 H   0  0  0  0  0  0  0  0  0  0  0  0
   -1.0669    0.3388    1.9690 H   0  0  0  0  0  0  0  0  0  0  0  0
    0.0638    1.6466    1.6414 H   0  0  0  0  0  0  0  0  0  0  0  0
    1.0589    0.6196   -2.7043 H   0  0  0  0  0  0  0  0  0  0  0  0
    4.4884   -0.1288   -3.0892 H   0  0  0  0  0  0  0  0  0  0  0  0
   -2.3746    2.2941    1.0752 H   0  0  0  0  0  0  0  0  0  0  0  0
   -3.1609    2.8856   -0.3792 H   0  0  0  0  0  0  0  0  0  0  0  0
   -3.6548   -2.5745   -0.3754 H   0  0  0  0  0  0  0  0  0  0  0  0
   -6.0236   -2.1508    0.1077 H   0  0  0  0  0  0  0  0  0  0  0  0
   -6.8092    0.1623    0.5481 H   0  0  0  0  0  0  0  0  0  0  0  0
   -5.2173    2.0330    0.4920 H   0  0  0  0  0  0  0  0  0  0  0  0
  1  2  1  0
  2  3  1  0
  3  4  2  0
  4  5  1  0
  5  6  1  0
  6  7  1  0
  7  8  1  0
  8  9  1  0
  9 10  1  0
 10 11  2  0
 11 12  1  0
  8 13  1  0
 13 14  1  0
 14 15  1  0
 15 16  2  0
 16 17  1  0
 16 18  1  0
 18 19  2  0
 19 20  1  0
 20 21  2  0
 11  3  1  0
 21 15  1  0
  9  5  2  0
 17  8  1  0
  1 22  1  0
  1 23  1  0
  1 24  1  0
  4 25  1  0
  6 26  1  0
  6 27  1  0
  7 28  1  0
  7 29  1  0
 10 30  1  0
 12 31  1  0
 14 32  1  0
 14 33  1  0
 18 34  1  0
 19 35  1  0
 20 36  1  0
 21 37  1  0
M  END
