
     RDKit          3D

 37 40  0  0  0  0  0  0  0  0999 V2000
   -4.2838    2.6995   -0.0154 C   0  0  0  0  0  0  0  0  0  0  0  0
   -4.6052    1.3848   -0.4560 O   0  0  0  0  0  0  0  0  0  0  0  0
   -3.5886    0.4625   -0.4176 C   0  0  0  0  0  0  0  0  0  0  0  0
   -2.2771    0.7041   -0.0029 C   0  0  0  0  0  0  0  0  0  0  0  0
   -1.3608   -0.3497   -0.0159 C   0  0  0  0  0  0  0  0  0  0  0  0
   -1.7482   -1.6250   -0.4606 C   0  0  0  0  0  0  0  0  0  0  0  0
   -3.0397   -1.8790   -0.8876 C   0  0  0  0  0  0  0  0  0  0  0  0
   -3.9484   -0.8276   -0.8527 C   0  0  0  0  0  0  0  0  0  0  0  0
   -5.2310   -1.0734   -1.2685 O   0  0  0  0  0  0  0  0  0  0  0  0
   -0.5915   -2.5712   -0.4576 C   0  0  0  0  0  0  0  0  0  0  0  0
    0.3724   -1.8551    0.4992 C   0  0  0  0  0  0  0  0  0  0  0  0
    0.1152   -0.3307    0.3511 C   0  0  0  0  0  0  0  0  0  0  0  0
    0.4279    0.5901    1.8848 S   0  0  0  0  0  0  0  0  0  0  0  0
    2.1490    0.1287    2.1179 C   0  0  0  0  0  0  0  0  0  0  0  0
    3.0908    0.4207    0.9794 C   0  0  0  0  0  0  0  0  0  0  0  0
    2.7249    0.5192   -0.3731 C   0  0  0  0  0  0  0  0  0  0  0  0
    1.0679    0.3972   -1.0314 S   0  0  0  0  0  0  0  0  0  0  0  0
    3.7211    0.7664   -1.3367 C   0  0  0  0  0  0  0  0  0  0  0  0
    5.0633    0.8942   -0.9808 C   0  0  0  0  0  0  0  0  0  0  0  0
    5.4332    0.7778    0.3503 C   0  0  0  0  0  0  0  0  0  0  0  0
    4.4580    0.5400    1.3176 C   0  0  0  0  0  0  0  0  0  0  0  0
   -3.5199    3.1540   -0.6548 H   0  0  0  0  0  0  0  0  0  0  0  0
   -5.1895    3.3084   -0.0956 H   0  0  0  0  0  0  0  0  0  0  0  0
   -3.9746    2.6999    1.0350 H   0  0  0  0  0  0  0  0  0  0  0  0
   -1.9478    1.6844    0.3222 H   0  0  0  0  0  0  0  0  0  0  0  0
   -3.3417   -2.8575   -1.2437 H   0  0  0  0  0  0  0  0  0  0  0  0
   -5.6902   -0.2164   -1.1723 H   0  0  0  0  0  0  0  0  0  0  0  0
   -0.8630   -3.5614   -0.0806 H   0  0  0  0  0  0  0  0  0  0  0  0
   -0.1680   -2.6579   -1.4633 H   0  0  0  0  0  0  0  0  0  0  0  0
    0.1240   -2.1846    1.5197 H   0  0  0  0  0  0  0  0  0  0  0  0
    1.4099   -2.1578    0.3188 H   0  0  0  0  0  0  0  0  0  0  0  0
    2.2109   -0.9348    2.3731 H   0  0  0  0  0  0  0  0  0  0  0  0
    2.4820    0.6814    3.0044 H   0  0  0  0  0  0  0  0  0  0  0  0
    3.4552    0.8623   -2.3887 H   0  0  0  0  0  0  0  0  0  0  0  0
    5.8130    1.0838   -1.7443 H   0  0  0  0  0  0  0  0  0  0  0  0
    6.4771    0.8727    0.6380 H   0  0  0  0  0  0  0  0  0  0  0  0
    4.7732    0.4498    2.3567 H   0  0  0  0  0  0  0  0  0  0  0  0
  1  2  1  0
  2  3  1  0
  3  4  2  0
  4  5  1  0
  5  6  2  0
  6  7  1  0
  7  8  2  0
  8  9  1  0
  6 10  1  0
 10 11  1  0
 11 12  1  0
 12 13  1  0
 13 14  1  0
 14 15  1  0
 15 16  2  0
 16 17  1  0
 16 18  1  0
 18 19  2  0
 19 20  1  0
 20 21  2  0
  8  3  1  0
 17 12  1  0
 12  5  1  0
 21 15  1  0
  1 22  1  0
  1 23  1  0
  1 24  1  0
  4 25  1  0
  7 26  1  0
  9 27  1  0
 10 28  1  0
 10 29  1  0
 11 30  1  0
 11 31  1  0
 14 32  1  0
 14 33  1  0
 18 34  1  0
 19 35  1  0
 20 36  1  0
 21 37  1  0
M  END
