
     RDKit          3D

 37 40  0  0  0  0  0  0  0  0999 V2000
    6.0695   -1.0943    0.2893 C   0  0  0  0  0  0  0  0  0  0  0  0
    5.2596    0.0005   -0.1231 O   0  0  0  0  0  0  0  0  0  0  0  0
    3.9013   -0.1660   -0.0118 C   0  0  0  0  0  0  0  0  0  0  0  0
    3.2488   -1.3072    0.4758 C   0  0  0  0  0  0  0  0  0  0  0  0
    1.8492   -1.3526    0.5474 C   0  0  0  0  0  0  0  0  0  0  0  0
    1.1077   -0.2561    0.1139 C   0  0  0  0  0  0  0  0  0  0  0  0
    1.7615    0.8852   -0.3699 C   0  0  0  0  0  0  0  0  0  0  0  0
    3.1401    0.9347   -0.4278 C   0  0  0  0  0  0  0  0  0  0  0  0
    3.7528    2.0644   -0.8897 O   0  0  0  0  0  0  0  0  0  0  0  0
    0.7845    1.9604   -0.7158 C   0  0  0  0  0  0  0  0  0  0  0  0
   -0.5060    1.1422   -0.8609 C   0  0  0  0  0  0  0  0  0  0  0  0
   -0.3992   -0.0492    0.1294 C   0  0  0  0  0  0  0  0  0  0  0  0
   -0.9260    0.3173    1.8368 S   0  0  0  0  0  0  0  0  0  0  0  0
   -2.6223    0.8107    1.5188 C   0  0  0  0  0  0  0  0  0  0  0  0
   -3.4738   -0.0798    0.6513 C   0  0  0  0  0  0  0  0  0  0  0  0
   -3.0018   -1.0582   -0.2377 C   0  0  0  0  0  0  0  0  0  0  0  0
   -1.2936   -1.5080   -0.4942 S   0  0  0  0  0  0  0  0  0  0  0  0
   -3.9260   -1.8013   -0.9965 C   0  0  0  0  0  0  0  0  0  0  0  0
   -5.2981   -1.5721   -0.9016 C   0  0  0  0  0  0  0  0  0  0  0  0
   -5.7706   -0.5941   -0.0403 C   0  0  0  0  0  0  0  0  0  0  0  0
   -4.8682    0.1438    0.7242 C   0  0  0  0  0  0  0  0  0  0  0  0
    5.9344   -1.3057    1.3551 H   0  0  0  0  0  0  0  0  0  0  0  0
    7.1155   -0.8114    0.1366 H   0  0  0  0  0  0  0  0  0  0  0  0
    5.8729   -1.9826   -0.3201 H   0  0  0  0  0  0  0  0  0  0  0  0
    3.7993   -2.1773    0.8179 H   0  0  0  0  0  0  0  0  0  0  0  0
    1.3553   -2.2345    0.9471 H   0  0  0  0  0  0  0  0  0  0  0  0
    4.7083    1.8683   -0.8343 H   0  0  0  0  0  0  0  0  0  0  0  0
    0.7099    2.6858    0.1007 H   0  0  0  0  0  0  0  0  0  0  0  0
    1.0348    2.4721   -1.6494 H   0  0  0  0  0  0  0  0  0  0  0  0
   -0.5394    0.7711   -1.8974 H   0  0  0  0  0  0  0  0  0  0  0  0
   -1.3930    1.7697   -0.7397 H   0  0  0  0  0  0  0  0  0  0  0  0
   -3.0928    0.8822    2.5069 H   0  0  0  0  0  0  0  0  0  0  0  0
   -2.6247    1.8244    1.1038 H   0  0  0  0  0  0  0  0  0  0  0  0
   -3.5785   -2.5754   -1.6794 H   0  0  0  0  0  0  0  0  0  0  0  0
   -5.9905   -2.1581   -1.4999 H   0  0  0  0  0  0  0  0  0  0  0  0
   -6.8380   -0.4054    0.0402 H   0  0  0  0  0  0  0  0  0  0  0  0
   -5.2630    0.9071    1.3942 H   0  0  0  0  0  0  0  0  0  0  0  0
  1  2  1  0
  2  3  1  0
  3  4  2  0
  4  5  1  0
  5  6  2  0
  6  7  1  0
  7  8  2  0
  8  9  1  0
  7 10  1  0
 10 11  1  0
 11 12  1  0
 12 13  1  0
 13 14  1  0
 14 15  1  0
 15 16  2  0
 16 17  1  0
 16 18  1  0
 18 19  2  0
 19 20  1  0
 20 21  2  0
  8  3  1  0
 17 12  1  0
 12  6  1  0
 21 15  1  0
  1 22  1  0
  1 23  1  0
  1 24  1  0
  4 25  1  0
  5 26  1  0
  9 27  1  0
 10 28  1  0
 10 29  1  0
 11 30  1  0
 11 31  1  0
 14 32  1  0
 14 33  1  0
 18 34  1  0
 19 35  1  0
 20 36  1  0
 21 37  1  0
M  END
