
     RDKit          3D

 39 41  0  0  0  0  0  0  0  0999 V2000
   -5.5206    1.0558   -1.0628 C   0  0  0  0  0  0  0  0  0  0  0  0
   -4.3186    1.6401   -0.5748 O   0  0  0  0  0  0  0  0  0  0  0  0
   -3.2604    0.7914   -0.3766 C   0  0  0  0  0  0  0  0  0  0  0  0
   -3.2567   -0.5858   -0.5814 C   0  0  0  0  0  0  0  0  0  0  0  0
   -2.0939   -1.3390   -0.3285 C   0  0  0  0  0  0  0  0  0  0  0  0
   -2.1106   -2.8282   -0.5663 C   0  0  0  0  0  0  0  0  0  0  0  0
   -0.9727   -3.5017    0.1852 C   0  0  0  0  0  0  0  0  0  0  0  0
    0.2533   -2.8690   -0.1718 O   0  0  0  0  0  0  0  0  0  0  0  0
    0.3505   -1.5372    0.3812 C   0  0  0  0  0  0  0  0  0  0  0  0
   -0.9039   -0.7094    0.0982 C   0  0  0  0  0  0  0  0  0  0  0  0
   -0.9288    0.6743    0.3227 C   0  0  0  0  0  0  0  0  0  0  0  0
   -2.0904    1.4013    0.0819 C   0  0  0  0  0  0  0  0  0  0  0  0
   -2.0638    2.7516    0.3089 O   0  0  0  0  0  0  0  0  0  0  0  0
    1.6524   -0.9322   -0.1870 C   0  0  0  0  0  0  0  0  0  0  0  0
    2.1439    0.0878    0.6879 O   0  0  0  0  0  0  0  0  0  0  0  0
    3.2708    0.7558    0.2960 C   0  0  0  0  0  0  0  0  0  0  0  0
    3.6544    1.7985    1.1438 C   0  0  0  0  0  0  0  0  0  0  0  0
    4.7881    2.5633    0.8639 C   0  0  0  0  0  0  0  0  0  0  0  0
    5.5484    2.2869   -0.2694 C   0  0  0  0  0  0  0  0  0  0  0  0
    5.1736    1.2469   -1.1185 C   0  0  0  0  0  0  0  0  0  0  0  0
    4.0373    0.4815   -0.8373 C   0  0  0  0  0  0  0  0  0  0  0  0
   -6.2576    1.8563   -1.1788 H   0  0  0  0  0  0  0  0  0  0  0  0
   -5.3671    0.5994   -2.0463 H   0  0  0  0  0  0  0  0  0  0  0  0
   -5.9254    0.3317   -0.3481 H   0  0  0  0  0  0  0  0  0  0  0  0
   -4.1419   -1.1057   -0.9330 H   0  0  0  0  0  0  0  0  0  0  0  0
   -1.9932   -2.9951   -1.6438 H   0  0  0  0  0  0  0  0  0  0  0  0
   -3.0653   -3.2608   -0.2477 H   0  0  0  0  0  0  0  0  0  0  0  0
   -1.1134   -3.4641    1.2726 H   0  0  0  0  0  0  0  0  0  0  0  0
   -0.9075   -4.5551   -0.1052 H   0  0  0  0  0  0  0  0  0  0  0  0
    0.4430   -1.6351    1.4713 H   0  0  0  0  0  0  0  0  0  0  0  0
   -0.0552    1.2057    0.6895 H   0  0  0  0  0  0  0  0  0  0  0  0
   -2.9596    3.0625    0.0748 H   0  0  0  0  0  0  0  0  0  0  0  0
    2.4070   -1.7259   -0.2623 H   0  0  0  0  0  0  0  0  0  0  0  0
    1.4672   -0.5280   -1.1908 H   0  0  0  0  0  0  0  0  0  0  0  0
    3.0624    2.0186    2.0287 H   0  0  0  0  0  0  0  0  0  0  0  0
    5.0739    3.3729    1.5297 H   0  0  0  0  0  0  0  0  0  0  0  0
    6.4313    2.8804   -0.4912 H   0  0  0  0  0  0  0  0  0  0  0  0
    5.7668    1.0296   -2.0032 H   0  0  0  0  0  0  0  0  0  0  0  0
    3.7819   -0.3204   -1.5217 H   0  0  0  0  0  0  0  0  0  0  0  0
  1  2  1  0
  2  3  1  0
  3  4  2  0
  4  5  1  0
  5  6  1  0
  6  7  1  0
  7  8  1  0
  8  9  1  0
  9 10  1  0
 10 11  1  0
 11 12  2  0
 12 13  1  0
  9 14  1  0
 14 15  1  0
 15 16  1  0
 16 17  2  0
 17 18  1  0
 18 19  2  0
 19 20  1  0
 20 21  2  0
 12  3  1  0
 21 16  1  0
 10  5  2  0
  1 22  1  0
  1 23  1  0
  1 24  1  0
  4 25  1  0
  6 26  1  0
  6 27  1  0
  7 28  1  0
  7 29  1  0
  9 30  1  0
 11 31  1  0
 13 32  1  0
 14 33  1  0
 14 34  1  0
 17 35  1  0
 18 36  1  0
 19 37  1  0
 20 38  1  0
 21 39  1  0
M  END
