
     RDKit          3D

 17 17  0  0  0  0  0  0  0  0999 V2000
   -2.0621    0.6589   -0.1869 C   0  0  0  0  0  0  0  0  0  0  0  0
   -1.9890   -0.7439   -0.0565 C   0  0  0  0  0  0  0  0  0  0  0  0
   -0.7543   -1.3820    0.0772 C   0  0  0  0  0  0  0  0  0  0  0  0
    0.3618   -0.5738    0.0739 C   0  0  0  0  0  0  0  0  0  0  0  0
    0.3167    0.7949   -0.0517 C   0  0  0  0  0  0  0  0  0  0  0  0
   -0.8994    1.4414   -0.1850 C   0  0  0  0  0  0  0  0  0  0  0  0
    1.6736    1.3833   -0.0204 C   0  0  0  0  0  0  0  0  0  0  0  0
    1.7982    2.6000   -0.1218 O   0  0  0  0  0  0  0  0  0  0  0  0
    2.6561    0.4741    0.1221 N   0  0  0  0  0  2  0  0  0  0  0  0
    2.0459   -1.0045    0.2169 S   0  0  0  0  0  6  0  0  0  0  0  0
    2.2653   -1.8695   -0.9373 O   0  0  0  0  0  0  0  0  0  0  0  0
    2.1128   -1.6487    1.5242 O   0  0  0  0  0  0  0  0  0  0  0  0
    0.0000    0.0000    0.0000 Na  0  0  0  0  0 15  0  0  0  0  0  0
   -3.0312    1.1395   -0.2901 H   0  0  0  0  0  0  0  0  0  0  0  0
   -2.9011   -1.3344   -0.0601 H   0  0  0  0  0  0  0  0  0  0  0  0
   -0.6573   -2.4560    0.1796 H   0  0  0  0  0  0  0  0  0  0  0  0
   -0.9362    2.5206   -0.2841 H   0  0  0  0  0  0  0  0  0  0  0  0
  1  2  2  0
  2  3  1  0
  3  4  2  0
  4  5  1  0
  5  6  2  0
  5  7  1  0
  7  8  2  0
  7  9  1  0
  9 10  1  0
 10 11  2  0
 10 12  2  0
  6  1  1  0
 10  4  1  0
  1 14  1  0
  2 15  1  0
  3 16  1  0
  6 17  1  0
M  CHG  2   9  -1  13   1
M  END
