
     RDKit          3D

 36 38  0  0  0  0  0  0  0  0999 V2000
   -5.5845    1.3578    0.1322 C   0  0  0  0  0  0  0  0  0  0  0  0
   -4.9996    0.0674   -0.0022 O   0  0  0  0  0  0  0  0  0  0  0  0
   -3.6337    0.0031    0.0910 C   0  0  0  0  0  0  0  0  0  0  0  0
   -2.7682    1.0738    0.2909 C   0  0  0  0  0  0  0  0  0  0  0  0
   -1.3839    0.8562    0.3647 C   0  0  0  0  0  0  0  0  0  0  0  0
   -0.8322   -0.4337    0.2452 C   0  0  0  0  0  0  0  0  0  0  0  0
   -1.7191   -1.5042    0.0387 C   0  0  0  0  0  0  0  0  0  0  0  0
   -3.0904   -1.2776   -0.0343 C   0  0  0  0  0  0  0  0  0  0  0  0
   -3.9092   -2.3560   -0.2373 O   0  0  0  0  0  0  0  0  0  0  0  0
    0.6868   -0.6725    0.3122 C   0  0  0  0  0  0  0  0  0  0  0  0
    1.0091   -1.7006    1.4158 C   0  0  0  0  0  0  0  0  0  0  0  0
    1.1855   -1.1284   -1.0750 C   0  0  0  0  0  0  0  0  0  0  0  0
    2.6042   -1.3244   -1.1086 O   0  0  0  0  0  0  0  0  0  0  0  0
    3.2561   -0.2457   -0.5742 C   0  0  0  0  0  0  0  0  0  0  0  0
    2.6372    0.6703    0.2779 C   0  0  0  0  0  0  0  0  0  0  0  0
    1.3331    0.5684    0.6814 O   0  0  0  0  0  0  0  0  0  0  0  0
    3.3586    1.7549    0.7747 C   0  0  0  0  0  0  0  0  0  0  0  0
    4.7043    1.9106    0.4379 C   0  0  0  0  0  0  0  0  0  0  0  0
    5.3280    0.9800   -0.3942 C   0  0  0  0  0  0  0  0  0  0  0  0
    4.6038   -0.1014   -0.8980 C   0  0  0  0  0  0  0  0  0  0  0  0
   -5.3760    1.7851    1.1186 H   0  0  0  0  0  0  0  0  0  0  0  0
   -5.2522    2.0268   -0.6685 H   0  0  0  0  0  0  0  0  0  0  0  0
   -6.6690    1.2435    0.0415 H   0  0  0  0  0  0  0  0  0  0  0  0
   -3.1272    2.0924    0.3933 H   0  0  0  0  0  0  0  0  0  0  0  0
   -0.7390    1.7202    0.5189 H   0  0  0  0  0  0  0  0  0  0  0  0
   -1.3598   -2.5243   -0.0697 H   0  0  0  0  0  0  0  0  0  0  0  0
   -4.8129   -1.9843   -0.2516 H   0  0  0  0  0  0  0  0  0  0  0  0
    2.0881   -1.8160    1.5653 H   0  0  0  0  0  0  0  0  0  0  0  0
    0.6019   -1.3716    2.3797 H   0  0  0  0  0  0  0  0  0  0  0  0
    0.5991   -2.6911    1.1939 H   0  0  0  0  0  0  0  0  0  0  0  0
    0.9254   -0.3958   -1.8522 H   0  0  0  0  0  0  0  0  0  0  0  0
    0.7277   -2.0800   -1.3682 H   0  0  0  0  0  0  0  0  0  0  0  0
    2.8764    2.4716    1.4335 H   0  0  0  0  0  0  0  0  0  0  0  0
    5.2678    2.7535    0.8300 H   0  0  0  0  0  0  0  0  0  0  0  0
    6.3776    1.0970   -0.6515 H   0  0  0  0  0  0  0  0  0  0  0  0
    5.0862   -0.8252   -1.5488 H   0  0  0  0  0  0  0  0  0  0  0  0
  1  2  1  0
  2  3  1  0
  3  4  2  0
  4  5  1  0
  5  6  2  0
  6  7  1  0
  7  8  2  0
  8  9  1  0
  6 10  1  0
 10 11  1  0
 10 12  1  0
 12 13  1  0
 13 14  1  0
 14 15  2  0
 15 16  1  0
 15 17  1  0
 17 18  2  0
 18 19  1  0
 19 20  2  0
  8  3  1  0
 16 10  1  0
 20 14  1  0
  1 21  1  0
  1 22  1  0
  1 23  1  0
  4 24  1  0
  5 25  1  0
  7 26  1  0
  9 27  1  0
 11 28  1  0
 11 29  1  0
 11 30  1  0
 12 31  1  0
 12 32  1  0
 17 33  1  0
 18 34  1  0
 19 35  1  0
 20 36  1  0
M  END
