
     RDKit          3D

 35 37  0  0  0  0  0  0  0  0999 V2000
   -5.8980    0.5034    1.1566 C   0  0  0  0  0  0  0  0  0  0  0  0
   -5.1907    0.3593   -0.0700 O   0  0  0  0  0  0  0  0  0  0  0  0
   -3.8223    0.3919    0.0059 C   0  0  0  0  0  0  0  0  0  0  0  0
   -3.0627    0.5157    1.1667 C   0  0  0  0  0  0  0  0  0  0  0  0
   -1.6630    0.5326    1.0916 C   0  0  0  0  0  0  0  0  0  0  0  0
   -1.0006    0.4338   -0.1436 C   0  0  0  0  0  0  0  0  0  0  0  0
   -1.7709    0.3035   -1.3071 C   0  0  0  0  0  0  0  0  0  0  0  0
   -3.1587    0.2845   -1.2204 C   0  0  0  0  0  0  0  0  0  0  0  0
   -3.8730    0.1544   -2.3810 O   0  0  0  0  0  0  0  0  0  0  0  0
    0.5125    0.4245   -0.2417 C   0  0  0  0  0  0  0  0  0  0  0  0
    1.0719    1.2243    0.8209 O   0  0  0  0  0  0  0  0  0  0  0  0
    2.4150    1.2373    1.0041 C   0  0  0  0  0  0  0  0  0  0  0  0
    2.9739    2.0877    1.6884 O   0  0  0  0  0  0  0  0  0  0  0  0
    3.2056    0.1577    0.3615 C   0  0  0  0  0  0  0  0  0  0  0  0
    2.5506   -0.9409   -0.2171 C   0  0  0  0  0  0  0  0  0  0  0  0
    1.0514   -1.0031   -0.1706 C   0  0  0  0  0  0  0  0  0  0  0  0
    3.3010   -1.9775   -0.7861 C   0  0  0  0  0  0  0  0  0  0  0  0
    4.6947   -1.9075   -0.7967 C   0  0  0  0  0  0  0  0  0  0  0  0
    5.3464   -0.8137   -0.2269 C   0  0  0  0  0  0  0  0  0  0  0  0
    4.6057    0.2104    0.3582 C   0  0  0  0  0  0  0  0  0  0  0  0
    5.3235    1.2341    0.9162 O   0  0  0  0  0  0  0  0  0  0  0  0
   -6.9681    0.4743    0.9299 H   0  0  0  0  0  0  0  0  0  0  0  0
   -5.6830    1.4693    1.6257 H   0  0  0  0  0  0  0  0  0  0  0  0
   -5.6791   -0.3258    1.8373 H   0  0  0  0  0  0  0  0  0  0  0  0
   -3.5198    0.6019    2.1467 H   0  0  0  0  0  0  0  0  0  0  0  0
   -1.0909    0.6315    2.0133 H   0  0  0  0  0  0  0  0  0  0  0  0
   -1.3028    0.2179   -2.2843 H   0  0  0  0  0  0  0  0  0  0  0  0
   -4.8094    0.1761   -2.1018 H   0  0  0  0  0  0  0  0  0  0  0  0
    0.8018    0.9106   -1.1841 H   0  0  0  0  0  0  0  0  0  0  0  0
    0.6620   -1.6009   -1.0032 H   0  0  0  0  0  0  0  0  0  0  0  0
    0.7590   -1.4916    0.7675 H   0  0  0  0  0  0  0  0  0  0  0  0
    2.8082   -2.8431   -1.2246 H   0  0  0  0  0  0  0  0  0  0  0  0
    5.2772   -2.7099   -1.2437 H   0  0  0  0  0  0  0  0  0  0  0  0
    6.4324   -0.7631   -0.2286 H   0  0  0  0  0  0  0  0  0  0  0  0
    4.7000    1.8401    1.3760 H   0  0  0  0  0  0  0  0  0  0  0  0
  1  2  1  0
  2  3  1  0
  3  4  2  0
  4  5  1  0
  5  6  2  0
  6  7  1  0
  7  8  2  0
  8  9  1  0
  6 10  1  0
 10 11  1  0
 11 12  1  0
 12 13  2  0
 12 14  1  0
 14 15  2  0
 15 16  1  0
 15 17  1  0
 17 18  2  0
 18 19  1  0
 19 20  2  0
 20 21  1  0
  8  3  1  0
 16 10  1  0
 20 14  1  0
  1 22  1  0
  1 23  1  0
  1 24  1  0
  4 25  1  0
  5 26  1  0
  7 27  1  0
  9 28  1  0
 10 29  1  0
 16 30  1  0
 16 31  1  0
 17 32  1  0
 18 33  1  0
 19 34  1  0
 21 35  1  0
M  END
