
     RDKit          3D

 33 35  0  0  0  0  0  0  0  0999 V2000
    5.8197   -0.3670   -0.9069 C   0  0  0  0  0  0  0  0  0  0  0  0
    5.1665    0.2867    0.1753 O   0  0  0  0  0  0  0  0  0  0  0  0
    3.7954    0.2820    0.1533 C   0  0  0  0  0  0  0  0  0  0  0  0
    2.9881   -0.2908   -0.8266 C   0  0  0  0  0  0  0  0  0  0  0  0
    1.5932   -0.2165   -0.7158 C   0  0  0  0  0  0  0  0  0  0  0  0
    0.9807    0.4338    0.3712 C   0  0  0  0  0  0  0  0  0  0  0  0
    1.8007    1.0007    1.3573 C   0  0  0  0  0  0  0  0  0  0  0  0
    3.1839    0.9222    1.2366 C   0  0  0  0  0  0  0  0  0  0  0  0
    3.9486    1.4935    2.2185 O   0  0  0  0  0  0  0  0  0  0  0  0
   -0.5292    0.5020    0.5042 C   0  0  0  0  0  0  0  0  0  0  0  0
   -1.0935    0.7484   -0.7835 O   0  0  0  0  0  0  0  0  0  0  0  0
   -2.4458    1.1764   -0.6819 C   0  0  0  0  0  0  0  0  0  0  0  0
   -3.3584    0.1318   -0.0939 C   0  0  0  0  0  0  0  0  0  0  0  0
   -2.8931   -0.8681    0.7733 C   0  0  0  0  0  0  0  0  0  0  0  0
   -1.1777   -1.0335    1.2309 S   0  0  0  0  0  0  0  0  0  0  0  0
   -3.7970   -1.7977    1.3066 C   0  0  0  0  0  0  0  0  0  0  0  0
   -5.1558   -1.7298    0.9978 C   0  0  0  0  0  0  0  0  0  0  0  0
   -5.6243   -0.7303    0.1521 C   0  0  0  0  0  0  0  0  0  0  0  0
   -4.7328    0.1967   -0.3875 C   0  0  0  0  0  0  0  0  0  0  0  0
    6.8986   -0.2817   -0.7457 H   0  0  0  0  0  0  0  0  0  0  0  0
    5.5861    0.1187   -1.8601 H   0  0  0  0  0  0  0  0  0  0  0  0
    5.5702   -1.4329   -0.9329 H   0  0  0  0  0  0  0  0  0  0  0  0
    3.4023   -0.8033   -1.6880 H   0  0  0  0  0  0  0  0  0  0  0  0
    0.9749   -0.6727   -1.4882 H   0  0  0  0  0  0  0  0  0  0  0  0
    1.3734    1.5009    2.2222 H   0  0  0  0  0  0  0  0  0  0  0  0
    4.8711    1.3200    1.9469 H   0  0  0  0  0  0  0  0  0  0  0  0
   -0.7781    1.3404    1.1681 H   0  0  0  0  0  0  0  0  0  0  0  0
   -2.7708    1.4081   -1.7024 H   0  0  0  0  0  0  0  0  0  0  0  0
   -2.5051    2.1035   -0.0988 H   0  0  0  0  0  0  0  0  0  0  0  0
   -3.4471   -2.5850    1.9714 H   0  0  0  0  0  0  0  0  0  0  0  0
   -5.8451   -2.4569    1.4191 H   0  0  0  0  0  0  0  0  0  0  0  0
   -6.6829   -0.6728   -0.0885 H   0  0  0  0  0  0  0  0  0  0  0  0
   -5.1167    0.9732   -1.0466 H   0  0  0  0  0  0  0  0  0  0  0  0
  1  2  1  0
  2  3  1  0
  3  4  2  0
  4  5  1  0
  5  6  2  0
  6  7  1  0
  7  8  2  0
  8  9  1  0
  6 10  1  0
 10 11  1  0
 11 12  1  0
 12 13  1  0
 13 14  2  0
 14 15  1  0
 14 16  1  0
 16 17  2  0
 17 18  1  0
 18 19  2  0
  8  3  1  0
 15 10  1  0
 19 13  1  0
  1 20  1  0
  1 21  1  0
  1 22  1  0
  4 23  1  0
  5 24  1  0
  7 25  1  0
  9 26  1  0
 10 27  1  0
 12 28  1  0
 12 29  1  0
 16 30  1  0
 17 31  1  0
 18 32  1  0
 19 33  1  0
M  END
