
     RDKit          3D

 33 35  0  0  0  0  0  0  0  0999 V2000
    5.9656   -0.4352    0.4582 C   0  0  0  0  0  0  0  0  0  0  0  0
    5.0391    0.2970   -0.3358 O   0  0  0  0  0  0  0  0  0  0  0  0
    3.7130    0.1486   -0.0221 C   0  0  0  0  0  0  0  0  0  0  0  0
    3.1902   -0.6339    1.0042 C   0  0  0  0  0  0  0  0  0  0  0  0
    1.8044   -0.6882    1.2092 C   0  0  0  0  0  0  0  0  0  0  0  0
    0.9168    0.0405    0.3971 C   0  0  0  0  0  0  0  0  0  0  0  0
    1.4514    0.8159   -0.6417 C   0  0  0  0  0  0  0  0  0  0  0  0
    2.8284    0.8648   -0.8343 C   0  0  0  0  0  0  0  0  0  0  0  0
    3.3075    1.6411   -1.8554 O   0  0  0  0  0  0  0  0  0  0  0  0
   -0.5762   -0.0480    0.6492 C   0  0  0  0  0  0  0  0  0  0  0  0
   -1.2916    1.3049    0.6250 C   0  0  0  0  0  0  0  0  0  0  0  0
   -2.6012    1.2272    1.2018 O   0  0  0  0  0  0  0  0  0  0  0  0
   -3.4590    0.3772    0.5513 C   0  0  0  0  0  0  0  0  0  0  0  0
   -3.0754   -0.6948   -0.2675 C   0  0  0  0  0  0  0  0  0  0  0  0
   -1.3754   -1.1449   -0.5733 S   0  0  0  0  0  0  0  0  0  0  0  0
   -4.0686   -1.4779   -0.8720 C   0  0  0  0  0  0  0  0  0  0  0  0
   -5.4214   -1.2109   -0.6497 C   0  0  0  0  0  0  0  0  0  0  0  0
   -5.7944   -0.1600    0.1834 C   0  0  0  0  0  0  0  0  0  0  0  0
   -4.8147    0.6287    0.7851 C   0  0  0  0  0  0  0  0  0  0  0  0
    5.9252   -0.1173    1.5052 H   0  0  0  0  0  0  0  0  0  0  0  0
    6.9705   -0.2188    0.0831 H   0  0  0  0  0  0  0  0  0  0  0  0
    5.8002   -1.5136    0.3643 H   0  0  0  0  0  0  0  0  0  0  0  0
    3.8253   -1.2169    1.6626 H   0  0  0  0  0  0  0  0  0  0  0  0
    1.4206   -1.3142    2.0136 H   0  0  0  0  0  0  0  0  0  0  0  0
    0.8112    1.3772   -1.3169 H   0  0  0  0  0  0  0  0  0  0  0  0
    4.2770    1.5242   -1.8245 H   0  0  0  0  0  0  0  0  0  0  0  0
   -0.7466   -0.5050    1.6325 H   0  0  0  0  0  0  0  0  0  0  0  0
   -1.3559    1.7517   -0.3767 H   0  0  0  0  0  0  0  0  0  0  0  0
   -0.7366    2.0215    1.2429 H   0  0  0  0  0  0  0  0  0  0  0  0
   -3.7956   -2.3109   -1.5167 H   0  0  0  0  0  0  0  0  0  0  0  0
   -6.1811   -1.8282   -1.1226 H   0  0  0  0  0  0  0  0  0  0  0  0
   -6.8460    0.0471    0.3641 H   0  0  0  0  0  0  0  0  0  0  0  0
   -5.1068    1.4510    1.4336 H   0  0  0  0  0  0  0  0  0  0  0  0
  1  2  1  0
  2  3  1  0
  3  4  2  0
  4  5  1  0
  5  6  2  0
  6  7  1  0
  7  8  2  0
  8  9  1  0
  6 10  1  0
 10 11  1  0
 11 12  1  0
 12 13  1  0
 13 14  2  0
 14 15  1  0
 14 16  1  0
 16 17  2  0
 17 18  1  0
 18 19  2  0
  8  3  1  0
 15 10  1  0
 19 13  1  0
  1 20  1  0
  1 21  1  0
  1 22  1  0
  4 23  1  0
  5 24  1  0
  7 25  1  0
  9 26  1  0
 10 27  1  0
 11 28  1  0
 11 29  1  0
 16 30  1  0
 17 31  1  0
 18 32  1  0
 19 33  1  0
M  END
