
     RDKit          3D

 46 49  0  0  0  0  0  0  0  0999 V2000
    7.2433    0.1553    0.4115 C   0  0  0  0  0  0  0  0  0  0  0  0
    6.2072    0.5645   -0.4736 O   0  0  0  0  0  0  0  0  0  0  0  0
    4.9221    0.2940   -0.0786 C   0  0  0  0  0  0  0  0  0  0  0  0
    4.5390   -0.3500    1.0961 C   0  0  0  0  0  0  0  0  0  0  0  0
    3.1803   -0.5595    1.3706 C   0  0  0  0  0  0  0  0  0  0  0  0
    2.1827   -0.1346    0.4743 C   0  0  0  0  0  0  0  0  0  0  0  0
    2.5776    0.5211   -0.7014 C   0  0  0  0  0  0  0  0  0  0  0  0
    3.9278    0.7229   -0.9644 C   0  0  0  0  0  0  0  0  0  0  0  0
    4.2723    1.3625   -2.1253 O   0  0  0  0  0  0  0  0  0  0  0  0
    0.7161   -0.3521    0.8009 C   0  0  0  0  0  0  0  0  0  0  0  0
    0.0528    1.1054    1.6928 S   0  0  0  0  0  0  0  0  0  0  0  0
   -1.7245    0.7024    1.6506 C   0  0  0  0  0  0  0  0  0  0  0  0
   -2.1557    0.2418    0.2727 C   0  0  0  0  0  0  0  0  0  0  0  0
   -1.3383   -0.9962   -0.1645 C   0  0  0  0  0  0  0  0  0  0  0  0
    0.0134   -0.6595   -0.4134 O   0  0  0  0  0  0  0  0  0  0  0  0
   -2.0935   -1.4720   -1.4177 C   0  0  0  0  0  0  0  0  0  0  0  0
   -3.3422   -0.5480   -1.4363 C   0  0  0  0  0  0  0  0  0  0  0  0
   -3.6182   -0.2466    0.0658 C   0  0  0  0  0  0  0  0  0  0  0  0
   -4.0459   -1.4877    0.8742 C   0  0  0  0  0  0  0  0  0  0  0  0
   -4.6999    0.8217    0.3212 C   0  0  0  0  0  0  0  0  0  0  0  0
   -2.8548    0.8037   -1.9886 C   0  0  0  0  0  0  0  0  0  0  0  0
   -2.0070    1.3458   -0.8288 C   0  0  0  0  0  0  0  0  0  0  0  0
    7.1623    0.6657    1.3769 H   0  0  0  0  0  0  0  0  0  0  0  0
    8.1987    0.4429   -0.0377 H   0  0  0  0  0  0  0  0  0  0  0  0
    7.2484   -0.9324    0.5368 H   0  0  0  0  0  0  0  0  0  0  0  0
    5.2649   -0.6987    1.8225 H   0  0  0  0  0  0  0  0  0  0  0  0
    2.9034   -1.0546    2.2995 H   0  0  0  0  0  0  0  0  0  0  0  0
    1.8353    0.8751   -1.4127 H   0  0  0  0  0  0  0  0  0  0  0  0
    5.2477    1.4029   -2.1071 H   0  0  0  0  0  0  0  0  0  0  0  0
    0.6407   -1.2222    1.4655 H   0  0  0  0  0  0  0  0  0  0  0  0
   -2.2822    1.5923    1.9596 H   0  0  0  0  0  0  0  0  0  0  0  0
   -1.9104   -0.0718    2.4023 H   0  0  0  0  0  0  0  0  0  0  0  0
   -1.3590   -1.7970    0.5855 H   0  0  0  0  0  0  0  0  0  0  0  0
   -1.4938   -1.4006   -2.3311 H   0  0  0  0  0  0  0  0  0  0  0  0
   -2.3983   -2.5181   -1.3032 H   0  0  0  0  0  0  0  0  0  0  0  0
   -4.1813   -0.9656   -1.9977 H   0  0  0  0  0  0  0  0  0  0  0  0
   -3.4127   -2.3656    0.7325 H   0  0  0  0  0  0  0  0  0  0  0  0
   -4.0555   -1.2662    1.9472 H   0  0  0  0  0  0  0  0  0  0  0  0
   -5.0593   -1.7952    0.5897 H   0  0  0  0  0  0  0  0  0  0  0  0
   -5.6727    0.4751   -0.0461 H   0  0  0  0  0  0  0  0  0  0  0  0
   -4.5093    1.7863   -0.1534 H   0  0  0  0  0  0  0  0  0  0  0  0
   -4.7992    1.0180    1.3951 H   0  0  0  0  0  0  0  0  0  0  0  0
   -2.2679    0.6980   -2.9070 H   0  0  0  0  0  0  0  0  0  0  0  0
   -3.6911    1.4744   -2.2116 H   0  0  0  0  0  0  0  0  0  0  0  0
   -0.9730    1.5075   -1.1500 H   0  0  0  0  0  0  0  0  0  0  0  0
   -2.3903    2.3147   -0.4898 H   0  0  0  0  0  0  0  0  0  0  0  0
  1  2  1  0
  2  3  1  0
  3  4  2  0
  4  5  1  0
  5  6  2  0
  6  7  1  0
  7  8  2  0
  8  9  1  0
  6 10  1  0
 10 11  1  0
 11 12  1  0
 12 13  1  0
 13 14  1  0
 14 15  1  0
 14 16  1  0
 16 17  1  0
 17 18  1  0
 18 19  1  0
 18 20  1  0
 17 21  1  0
 21 22  1  0
  8  3  1  0
 15 10  1  0
 22 13  1  0
 18 13  1  0
  1 23  1  0
  1 24  1  0
  1 25  1  0
  4 26  1  0
  5 27  1  0
  7 28  1  0
  9 29  1  0
 10 30  1  0
 12 31  1  0
 12 32  1  0
 14 33  1  0
 16 34  1  0
 16 35  1  0
 17 36  1  0
 19 37  1  0
 19 38  1  0
 19 39  1  0
 20 40  1  0
 20 41  1  0
 20 42  1  0
 21 43  1  0
 21 44  1  0
 22 45  1  0
 22 46  1  0
M  END
