
     RDKit          3D

 30 32  0  0  0  0  0  0  0  0999 V2000
    5.7537    0.2612    0.7463 O   0  0  0  0  0  0  0  0  0  0  0  0
    4.4211    0.3170    0.4533 C   0  0  0  0  0  0  0  0  0  0  0  0
    3.8652    1.5219    0.0538 C   0  0  0  0  0  0  0  0  0  0  0  0
    2.5018    1.5785   -0.2458 C   0  0  0  0  0  0  0  0  0  0  0  0
    1.6933    0.4277   -0.1526 C   0  0  0  0  0  0  0  0  0  0  0  0
    2.2801   -0.7826    0.2648 C   0  0  0  0  0  0  0  0  0  0  0  0
    3.6378   -0.8280    0.5610 C   0  0  0  0  0  0  0  0  0  0  0  0
    4.2494   -1.9827    0.9659 O   0  0  0  0  0  0  0  0  0  0  0  0
    0.2101    0.5124   -0.4685 C   0  0  0  0  0  0  0  0  0  0  0  0
   -0.1833   -0.6787   -1.1496 O   0  0  0  0  0  0  0  0  0  0  0  0
   -1.4474   -0.5187   -1.7821 C   0  0  0  0  0  0  0  0  0  0  0  0
   -2.5734   -0.2843   -0.8092 C   0  0  0  0  0  0  0  0  0  0  0  0
   -2.3658    0.2893    0.4543 C   0  0  0  0  0  0  0  0  0  0  0  0
   -0.7527    0.7557    1.0541 S   0  0  0  0  0  0  0  0  0  0  0  0
   -3.4589    0.5035    1.3056 C   0  0  0  0  0  0  0  0  0  0  0  0
   -4.7522    0.1678    0.9043 C   0  0  0  0  0  0  0  0  0  0  0  0
   -4.9650   -0.3853   -0.3535 C   0  0  0  0  0  0  0  0  0  0  0  0
   -3.8839   -0.6067   -1.2065 C   0  0  0  0  0  0  0  0  0  0  0  0
    5.9050   -0.6702    1.0034 H   0  0  0  0  0  0  0  0  0  0  0  0
    4.4859    2.4096   -0.0200 H   0  0  0  0  0  0  0  0  0  0  0  0
    2.0719    2.5309   -0.5498 H   0  0  0  0  0  0  0  0  0  0  0  0
    1.6618   -1.6722    0.3511 H   0  0  0  0  0  0  0  0  0  0  0  0
    3.5721   -2.6804    0.9998 H   0  0  0  0  0  0  0  0  0  0  0  0
    0.0495    1.3721   -1.1325 H   0  0  0  0  0  0  0  0  0  0  0  0
   -1.4022    0.2968   -2.5141 H   0  0  0  0  0  0  0  0  0  0  0  0
   -1.6327   -1.4469   -2.3342 H   0  0  0  0  0  0  0  0  0  0  0  0
   -3.3103    0.9370    2.2927 H   0  0  0  0  0  0  0  0  0  0  0  0
   -5.5904    0.3400    1.5746 H   0  0  0  0  0  0  0  0  0  0  0  0
   -5.9719   -0.6454   -0.6705 H   0  0  0  0  0  0  0  0  0  0  0  0
   -4.0690   -1.0393   -2.1880 H   0  0  0  0  0  0  0  0  0  0  0  0
  1  2  1  0
  2  3  2  0
  3  4  1  0
  4  5  2  0
  5  6  1  0
  6  7  2  0
  7  8  1  0
  5  9  1  0
  9 10  1  0
 10 11  1  0
 11 12  1  0
 12 13  2  0
 13 14  1  0
 13 15  1  0
 15 16  2  0
 16 17  1  0
 17 18  2  0
  7  2  1  0
 14  9  1  0
 18 12  1  0
  1 19  1  0
  3 20  1  0
  4 21  1  0
  6 22  1  0
  8 23  1  0
  9 24  1  0
 11 25  1  0
 11 26  1  0
 15 27  1  0
 16 28  1  0
 17 29  1  0
 18 30  1  0
M  END
