
     RDKit          3D

 45 48  0  0  0  0  0  0  0  0999 V2000
   -3.3535   -0.8602   -0.0299 O   0  0  0  0  0  0  0  0  0  0  0  0
   -2.9678    0.2917   -0.1959 C   0  0  0  0  0  0  0  0  0  0  0  0
   -1.6821    0.6680   -0.5551 O   0  0  0  0  0  0  0  0  0  0  0  0
   -0.6635   -0.2868   -0.7622 C   0  0  0  0  0  0  0  0  0  0  0  0
    0.6013    0.1058   -0.3078 C   0  0  0  0  0  0  0  0  0  0  0  0
    1.7257   -0.7085   -0.5272 C   0  0  0  0  0  0  0  0  0  0  0  0
    1.5539   -1.9057   -1.2429 C   0  0  0  0  0  0  0  0  0  0  0  0
    0.2935   -2.2872   -1.7095 C   0  0  0  0  0  0  0  0  0  0  0  0
   -0.8153   -1.4840   -1.4619 C   0  0  0  0  0  0  0  0  0  0  0  0
   -2.0068   -1.9288   -1.9542 O   0  0  0  0  0  0  0  0  0  0  0  0
    3.0953   -0.2673   -0.0406 C   0  0  0  0  0  0  0  0  0  0  0  0
    3.8293   -1.4136    0.3853 O   0  0  0  0  0  0  0  0  0  0  0  0
    4.9590   -1.0472    1.1676 C   0  0  0  0  0  0  0  0  0  0  0  0
    5.9770   -0.2406    0.4045 C   0  0  0  0  0  0  0  0  0  0  0  0
    5.6320    0.5475   -0.7036 C   0  0  0  0  0  0  0  0  0  0  0  0
    3.9720    0.6423   -1.3470 S   0  0  0  0  0  0  0  0  0  0  0  0
    6.6225    1.2935   -1.3580 C   0  0  0  0  0  0  0  0  0  0  0  0
    7.9435    1.2737   -0.9098 C   0  0  0  0  0  0  0  0  0  0  0  0
    8.2869    0.5074    0.1984 C   0  0  0  0  0  0  0  0  0  0  0  0
    7.3102   -0.2421    0.8537 C   0  0  0  0  0  0  0  0  0  0  0  0
   -3.7251    1.4452   -0.0666 O   0  0  0  0  0  0  0  0  0  0  0  0
   -5.0539    1.1821    0.2649 C   0  0  0  0  0  0  0  0  0  0  0  0
   -5.9872    0.9993   -0.7564 C   0  0  0  0  0  0  0  0  0  0  0  0
   -7.3246    0.7720   -0.4270 C   0  0  0  0  0  0  0  0  0  0  0  0
   -7.7097    0.7455    0.9228 C   0  0  0  0  0  0  0  0  0  0  0  0
   -6.7666    0.9509    1.9425 C   0  0  0  0  0  0  0  0  0  0  0  0
   -5.4303    1.1778    1.6084 C   0  0  0  0  0  0  0  0  0  0  0  0
   -9.1167    0.5085    1.2724 N   0  0  0  0  0  4  0  0  0  0  0  0
   -9.4175    0.4966    2.4745 O   0  0  0  0  0  1  0  0  0  0  0  0
   -9.9202    0.3375    0.3447 O   0  0  0  0  0  0  0  0  0  0  0  0
    0.7099    1.0589    0.2052 H   0  0  0  0  0  0  0  0  0  0  0  0
    2.4108   -2.5462   -1.4473 H   0  0  0  0  0  0  0  0  0  0  0  0
    0.1797   -3.2133   -2.2669 H   0  0  0  0  0  0  0  0  0  0  0  0
   -2.6684   -1.8304   -1.2373 H   0  0  0  0  0  0  0  0  0  0  0  0
    2.9506    0.3996    0.8197 H   0  0  0  0  0  0  0  0  0  0  0  0
    4.6359   -0.5006    2.0619 H   0  0  0  0  0  0  0  0  0  0  0  0
    5.4165   -1.9849    1.5023 H   0  0  0  0  0  0  0  0  0  0  0  0
    6.3708    1.8989   -2.2265 H   0  0  0  0  0  0  0  0  0  0  0  0
    8.7010    1.8566   -1.4273 H   0  0  0  0  0  0  0  0  0  0  0  0
    9.3151    0.4910    0.5514 H   0  0  0  0  0  0  0  0  0  0  0  0
    7.5968   -0.8364    1.7195 H   0  0  0  0  0  0  0  0  0  0  0  0
   -5.6801    1.0295   -1.7986 H   0  0  0  0  0  0  0  0  0  0  0  0
   -8.0492    0.6205   -1.2249 H   0  0  0  0  0  0  0  0  0  0  0  0
   -7.0566    0.9388    2.9914 H   0  0  0  0  0  0  0  0  0  0  0  0
   -4.6937    1.3450    2.3896 H   0  0  0  0  0  0  0  0  0  0  0  0
  1  2  2  0
  2  3  1  0
  3  4  1  0
  4  5  2  0
  5  6  1  0
  6  7  2  0
  7  8  1  0
  8  9  2  0
  9 10  1  0
  6 11  1  0
 11 12  1  0
 12 13  1  0
 13 14  1  0
 14 15  2  0
 15 16  1  0
 15 17  1  0
 17 18  2  0
 18 19  1  0
 19 20  2  0
  2 21  1  0
 21 22  1  0
 22 23  2  0
 23 24  1  0
 24 25  2  0
 25 26  1  0
 26 27  2  0
 25 28  1  0
 28 29  1  0
 28 30  2  0
  9  4  1  0
 16 11  1  0
 27 22  1  0
 20 14  1  0
  5 31  1  0
  7 32  1  0
  8 33  1  0
 10 34  1  0
 11 35  1  0
 13 36  1  0
 13 37  1  0
 17 38  1  0
 18 39  1  0
 19 40  1  0
 20 41  1  0
 23 42  1  0
 24 43  1  0
 26 44  1  0
 27 45  1  0
M  CHG  2  28   1  29  -1
M  END
