
     RDKit          3D

 46 49  0  0  0  0  0  0  0  0999 V2000
    4.4228   -3.2174   -0.4138 O   0  0  0  0  0  0  0  0  0  0  0  0
    3.9582   -2.1038   -0.1554 C   0  0  0  0  0  0  0  0  0  0  0  0
    3.3021   -1.3149   -1.2484 C   0  0  0  0  0  0  0  0  0  0  0  0
    2.8194   -2.0072   -2.3726 C   0  0  0  0  0  0  0  0  0  0  0  0
    2.1844   -1.3203   -3.4171 C   0  0  0  0  0  0  0  0  0  0  0  0
    2.0338    0.0706   -3.3360 C   0  0  0  0  0  0  0  0  0  0  0  0
    2.5233    0.7735   -2.2252 C   0  0  0  0  0  0  0  0  0  0  0  0
    3.1616    0.0786   -1.1854 C   0  0  0  0  0  0  0  0  0  0  0  0
    1.3571    0.7981   -4.4238 N   0  0  0  0  0  4  0  0  0  0  0  0
    1.2948    2.0348   -4.3393 O   0  0  0  0  0  1  0  0  0  0  0  0
    0.8897    0.1330   -5.3643 O   0  0  0  0  0  0  0  0  0  0  0  0
    4.0581   -1.5142    1.2572 C   0  0  0  0  0  0  0  0  0  0  0  0
    2.9446   -0.7726    1.7403 O   0  0  0  0  0  0  0  0  0  0  0  0
    1.7405   -1.4217    1.7755 C   0  0  0  0  0  0  0  0  0  0  0  0
    1.5657   -2.7981    1.9117 C   0  0  0  0  0  0  0  0  0  0  0  0
    0.2799   -3.3410    1.9021 C   0  0  0  0  0  0  0  0  0  0  0  0
   -0.8341   -2.5118    1.7573 C   0  0  0  0  0  0  0  0  0  0  0  0
   -0.6784   -1.1231    1.6382 C   0  0  0  0  0  0  0  0  0  0  0  0
    0.6228   -0.5923    1.6589 C   0  0  0  0  0  0  0  0  0  0  0  0
   -1.8868   -0.2256    1.4404 C   0  0  0  0  0  0  0  0  0  0  0  0
   -1.7034    0.9673    2.2038 O   0  0  0  0  0  0  0  0  0  0  0  0
   -2.9180    1.7001    2.3164 C   0  0  0  0  0  0  0  0  0  0  0  0
   -3.4010    2.2396    0.9965 C   0  0  0  0  0  0  0  0  0  0  0  0
   -3.1160    1.6003   -0.2210 C   0  0  0  0  0  0  0  0  0  0  0  0
   -2.1183    0.1271   -0.3337 S   0  0  0  0  0  0  0  0  0  0  0  0
   -3.6096    2.1384   -1.4184 C   0  0  0  0  0  0  0  0  0  0  0  0
   -4.3916    3.2947   -1.4135 C   0  0  0  0  0  0  0  0  0  0  0  0
   -4.6867    3.9251   -0.2088 C   0  0  0  0  0  0  0  0  0  0  0  0
   -4.1977    3.4000    0.9888 C   0  0  0  0  0  0  0  0  0  0  0  0
    2.9292   -3.0901   -2.4348 H   0  0  0  0  0  0  0  0  0  0  0  0
    1.8156   -1.8810   -4.2751 H   0  0  0  0  0  0  0  0  0  0  0  0
    2.4141    1.8550   -2.1495 H   0  0  0  0  0  0  0  0  0  0  0  0
    3.5354    0.6467   -0.3352 H   0  0  0  0  0  0  0  0  0  0  0  0
    4.3094   -2.3133    1.9698 H   0  0  0  0  0  0  0  0  0  0  0  0
    4.9248   -0.8399    1.2532 H   0  0  0  0  0  0  0  0  0  0  0  0
    2.4060   -3.4753    2.0325 H   0  0  0  0  0  0  0  0  0  0  0  0
    0.1472   -4.4163    2.0014 H   0  0  0  0  0  0  0  0  0  0  0  0
   -1.8251   -2.9593    1.7346 H   0  0  0  0  0  0  0  0  0  0  0  0
    0.7666    0.4832    1.5638 H   0  0  0  0  0  0  0  0  0  0  0  0
   -2.7751   -0.7537    1.8151 H   0  0  0  0  0  0  0  0  0  0  0  0
   -3.6970    1.0805    2.7813 H   0  0  0  0  0  0  0  0  0  0  0  0
   -2.7100    2.5314    2.9996 H   0  0  0  0  0  0  0  0  0  0  0  0
   -3.3858    1.6591   -2.3725 H   0  0  0  0  0  0  0  0  0  0  0  0
   -4.7619    3.7040   -2.3495 H   0  0  0  0  0  0  0  0  0  0  0  0
   -5.2896    4.8314   -0.2012 H   0  0  0  0  0  0  0  0  0  0  0  0
   -4.4210    3.9205    1.9222 H   0  0  0  0  0  0  0  0  0  0  0  0
  1  2  2  0
  2  3  1  0
  3  4  2  0
  4  5  1  0
  5  6  2  0
  6  7  1  0
  7  8  2  0
  6  9  1  0
  9 10  1  0
  9 11  2  0
  2 12  1  0
 12 13  1  0
 13 14  1  0
 14 15  2  0
 15 16  1  0
 16 17  2  0
 17 18  1  0
 18 19  2  0
 18 20  1  0
 20 21  1  0
 21 22  1  0
 22 23  1  0
 23 24  2  0
 24 25  1  0
 24 26  1  0
 26 27  2  0
 27 28  1  0
 28 29  2  0
  8  3  1  0
 19 14  1  0
 25 20  1  0
 29 23  1  0
  4 30  1  0
  5 31  1  0
  7 32  1  0
  8 33  1  0
 12 34  1  0
 12 35  1  0
 15 36  1  0
 16 37  1  0
 17 38  1  0
 19 39  1  0
 20 40  1  0
 22 41  1  0
 22 42  1  0
 26 43  1  0
 27 44  1  0
 28 45  1  0
 29 46  1  0
M  CHG  2   9   1  10  -1
M  END
