
     RDKit          3D

 49 52  0  0  0  0  0  0  0  0999 V2000
   -1.1304   -1.9730   -4.0613 C   0  0  0  0  0  0  0  0  0  0  0  0
   -1.1480   -0.9290   -3.0963 O   0  0  0  0  0  0  0  0  0  0  0  0
   -0.0890   -0.8725   -2.2303 C   0  0  0  0  0  0  0  0  0  0  0  0
    1.0806   -1.6248   -2.3282 C   0  0  0  0  0  0  0  0  0  0  0  0
    2.1076   -1.4605   -1.3879 C   0  0  0  0  0  0  0  0  0  0  0  0
    1.9879   -0.5455   -0.3276 C   0  0  0  0  0  0  0  0  0  0  0  0
    0.8210    0.2243   -0.2399 C   0  0  0  0  0  0  0  0  0  0  0  0
   -0.2011    0.0400   -1.1737 C   0  0  0  0  0  0  0  0  0  0  0  0
   -1.3400    0.8485   -1.0735 O   0  0  0  0  0  0  0  0  0  0  0  0
   -2.3855    0.2361   -0.3941 C   0  0  0  0  0  0  0  0  0  0  0  0
   -2.3092   -0.8267    0.2068 O   0  0  0  0  0  0  0  0  0  0  0  0
   -3.4873    1.0473   -0.5027 N   0  0  0  0  0  0  0  0  0  0  0  0
   -4.7733    0.8512    0.0257 C   0  0  0  0  0  0  0  0  0  0  0  0
   -5.1363   -0.2556    0.7992 C   0  0  0  0  0  0  0  0  0  0  0  0
   -6.4403   -0.3838    1.2937 C   0  0  0  0  0  0  0  0  0  0  0  0
   -7.3886    0.6048    1.0113 C   0  0  0  0  0  0  0  0  0  0  0  0
   -7.0397    1.7178    0.2387 C   0  0  0  0  0  0  0  0  0  0  0  0
   -5.7339    1.8347   -0.2498 C   0  0  0  0  0  0  0  0  0  0  0  0
   -8.7567    0.4747    1.5277 N   0  0  0  0  0  4  0  0  0  0  0  0
   -9.5638    1.3740    1.2514 O   0  0  0  0  0  1  0  0  0  0  0  0
   -9.0244   -0.5246    2.2096 O   0  0  0  0  0  0  0  0  0  0  0  0
    3.1092   -0.3512    0.6744 C   0  0  0  0  0  0  0  0  0  0  0  0
    3.6869   -1.6203    0.9807 O   0  0  0  0  0  0  0  0  0  0  0  0
    4.6531   -1.4704    2.0132 C   0  0  0  0  0  0  0  0  0  0  0  0
    5.6095   -0.3692    1.6777 C   0  0  0  0  0  0  0  0  0  0  0  0
    5.2411    0.5980    0.7407 C   0  0  0  0  0  0  0  0  0  0  0  0
    4.0352    0.5749    0.0961 O   0  0  0  0  0  0  0  0  0  0  0  0
    6.1159    1.6297    0.4057 C   0  0  0  0  0  0  0  0  0  0  0  0
    7.3609    1.7151    1.0282 C   0  0  0  0  0  0  0  0  0  0  0  0
    7.7293    0.7664    1.9816 C   0  0  0  0  0  0  0  0  0  0  0  0
    6.8563   -0.2730    2.3081 C   0  0  0  0  0  0  0  0  0  0  0  0
   -0.3209   -1.8256   -4.7836 H   0  0  0  0  0  0  0  0  0  0  0  0
   -2.0762   -1.9359   -4.6105 H   0  0  0  0  0  0  0  0  0  0  0  0
   -1.0614   -2.9561   -3.5837 H   0  0  0  0  0  0  0  0  0  0  0  0
    1.2364   -2.3428   -3.1263 H   0  0  0  0  0  0  0  0  0  0  0  0
    3.0161   -2.0537   -1.4858 H   0  0  0  0  0  0  0  0  0  0  0  0
    0.6997    0.9604    0.5497 H   0  0  0  0  0  0  0  0  0  0  0  0
   -3.3209    1.8732   -1.0612 H   0  0  0  0  0  0  0  0  0  0  0  0
   -4.4261   -1.0430    1.0373 H   0  0  0  0  0  0  0  0  0  0  0  0
   -6.6919   -1.2574    1.8922 H   0  0  0  0  0  0  0  0  0  0  0  0
   -7.7639    2.4966    0.0083 H   0  0  0  0  0  0  0  0  0  0  0  0
   -5.4799    2.7062   -0.8495 H   0  0  0  0  0  0  0  0  0  0  0  0
    2.6859    0.0836    1.5919 H   0  0  0  0  0  0  0  0  0  0  0  0
    5.1832   -2.4238    2.1052 H   0  0  0  0  0  0  0  0  0  0  0  0
    4.1462   -1.2622    2.9626 H   0  0  0  0  0  0  0  0  0  0  0  0
    5.8262    2.3674   -0.3375 H   0  0  0  0  0  0  0  0  0  0  0  0
    8.0428    2.5208    0.7691 H   0  0  0  0  0  0  0  0  0  0  0  0
    8.6996    0.8343    2.4674 H   0  0  0  0  0  0  0  0  0  0  0  0
    7.1577   -1.0099    3.0491 H   0  0  0  0  0  0  0  0  0  0  0  0
  1  2  1  0
  2  3  1  0
  3  4  2  0
  4  5  1  0
  5  6  2  0
  6  7  1  0
  7  8  2  0
  8  9  1  0
  9 10  1  0
 10 11  2  0
 10 12  1  0
 12 13  1  0
 13 14  2  0
 14 15  1  0
 15 16  2  0
 16 17  1  0
 17 18  2  0
 16 19  1  0
 19 20  1  0
 19 21  2  0
  6 22  1  0
 22 23  1  0
 23 24  1  0
 24 25  1  0
 25 26  2  0
 26 27  1  0
 26 28  1  0
 28 29  2  0
 29 30  1  0
 30 31  2  0
  8  3  1  0
 18 13  1  0
 27 22  1  0
 31 25  1  0
  1 32  1  0
  1 33  1  0
  1 34  1  0
  4 35  1  0
  5 36  1  0
  7 37  1  0
 12 38  1  0
 14 39  1  0
 15 40  1  0
 17 41  1  0
 18 42  1  0
 22 43  1  0
 24 44  1  0
 24 45  1  0
 28 46  1  0
 29 47  1  0
 30 48  1  0
 31 49  1  0
M  CHG  2  19   1  20  -1
M  END
