
     RDKit          3D

 38 39  0  0  0  0  0  0  0  0999 V2000
    6.4038    1.4158   -0.4408 C   0  0  0  0  0  0  0  0  0  0  0  0
    5.5574    1.1220    0.6647 O   0  0  0  0  0  0  0  0  0  0  0  0
    4.3805    0.4784    0.3796 C   0  0  0  0  0  0  0  0  0  0  0  0
    3.9274    0.1097   -0.8857 C   0  0  0  0  0  0  0  0  0  0  0  0
    2.6968   -0.5453   -1.0266 C   0  0  0  0  0  0  0  0  0  0  0  0
    1.9079   -0.8443    0.0938 C   0  0  0  0  0  0  0  0  0  0  0  0
    2.3618   -0.4686    1.3626 C   0  0  0  0  0  0  0  0  0  0  0  0
    3.5834    0.1827    1.4910 C   0  0  0  0  0  0  0  0  0  0  0  0
    3.9974    0.5361    2.7475 O   0  0  0  0  0  0  0  0  0  0  0  0
    0.5748   -1.5321   -0.0685 C   0  0  0  0  0  0  0  0  0  0  0  0
   -0.5685   -0.5221   -0.1799 C   0  0  0  0  0  0  0  0  0  0  0  0
   -1.9083   -1.2177   -0.3195 C   0  0  0  0  0  0  0  0  0  0  0  0
   -1.9914   -2.4125   -0.6200 O   0  0  0  0  0  0  0  0  0  0  0  0
   -3.1820   -0.4735   -0.0648 C   0  0  0  0  0  0  0  0  0  0  0  0
   -3.2783    0.9266   -0.0651 C   0  0  0  0  0  0  0  0  0  0  0  0
   -2.1965    1.7102   -0.3567 O   0  0  0  0  0  0  0  0  0  0  0  0
   -4.4957    1.5599    0.2087 C   0  0  0  0  0  0  0  0  0  0  0  0
   -5.6268    0.7978    0.4758 C   0  0  0  0  0  0  0  0  0  0  0  0
   -5.5686   -0.5880    0.4665 C   0  0  0  0  0  0  0  0  0  0  0  0
   -4.3535   -1.2155    0.1900 C   0  0  0  0  0  0  0  0  0  0  0  0
   -4.3923   -2.5879    0.1890 O   0  0  0  0  0  0  0  0  0  0  0  0
   -6.7893    1.4597    0.7379 O   0  0  0  0  0  0  0  0  0  0  0  0
    5.9161    2.1045   -1.1385 H   0  0  0  0  0  0  0  0  0  0  0  0
    7.2982    1.9130   -0.0532 H   0  0  0  0  0  0  0  0  0  0  0  0
    6.7251    0.4995   -0.9470 H   0  0  0  0  0  0  0  0  0  0  0  0
    4.5000    0.3148   -1.7836 H   0  0  0  0  0  0  0  0  0  0  0  0
    2.3566   -0.8236   -2.0224 H   0  0  0  0  0  0  0  0  0  0  0  0
    1.7734   -0.6788    2.2515 H   0  0  0  0  0  0  0  0  0  0  0  0
    4.8650    0.9640    2.6118 H   0  0  0  0  0  0  0  0  0  0  0  0
    0.4067   -2.2066    0.7813 H   0  0  0  0  0  0  0  0  0  0  0  0
    0.6039   -2.1778   -0.9558 H   0  0  0  0  0  0  0  0  0  0  0  0
   -0.4114    0.1102   -1.0607 H   0  0  0  0  0  0  0  0  0  0  0  0
   -0.5814    0.1013    0.7212 H   0  0  0  0  0  0  0  0  0  0  0  0
   -2.4499    2.6487   -0.3067 H   0  0  0  0  0  0  0  0  0  0  0  0
   -4.5836    2.6425    0.2134 H   0  0  0  0  0  0  0  0  0  0  0  0
   -6.4459   -1.1959    0.6646 H   0  0  0  0  0  0  0  0  0  0  0  0
   -3.5232   -2.9132   -0.1417 H   0  0  0  0  0  0  0  0  0  0  0  0
   -7.4898    0.8058    0.9051 H   0  0  0  0  0  0  0  0  0  0  0  0
  1  2  1  0
  2  3  1  0
  3  4  2  0
  4  5  1  0
  5  6  2  0
  6  7  1  0
  7  8  2  0
  8  9  1  0
  6 10  1  0
 10 11  1  0
 11 12  1  0
 12 13  2  0
 12 14  1  0
 14 15  2  0
 15 16  1  0
 15 17  1  0
 17 18  2  0
 18 19  1  0
 19 20  2  0
 20 21  1  0
 18 22  1  0
  8  3  1  0
 20 14  1  0
  1 23  1  0
  1 24  1  0
  1 25  1  0
  4 26  1  0
  5 27  1  0
  7 28  1  0
  9 29  1  0
 10 30  1  0
 10 31  1  0
 11 32  1  0
 11 33  1  0
 16 34  1  0
 17 35  1  0
 19 36  1  0
 21 37  1  0
 22 38  1  0
M  END
