
     RDKit          3D

 47 47  0  0  0  0  0  0  0  0999 V2000
    6.4335    2.0546    1.3949 O   0  0  0  0  0  0  0  0  0  0  0  0
    5.1105    1.7419    0.9518 C   0  0  0  0  0  0  0  0  0  0  0  0
    4.9506    0.2180    0.8831 C   0  0  0  0  0  0  0  0  0  0  0  0
    3.5167   -0.2485    0.5305 C   0  0  0  0  0  0  0  0  0  0  0  0
    2.9974    0.3226   -0.8110 C   0  0  0  0  0  0  0  0  0  0  0  0
    1.6902   -0.3119   -1.3284 C   0  0  0  0  0  0  0  0  0  0  0  0
    0.5122   -0.2931   -0.3533 C   0  0  0  0  0  0  0  0  0  0  0  0
   -0.6449   -0.7826   -1.0567 O   0  0  0  0  0  0  0  0  0  0  0  0
   -1.8278   -0.6776   -0.2492 C   0  0  0  0  0  0  0  0  0  0  0  0
   -2.1565    0.6927   -0.0282 O   0  0  0  0  0  0  0  0  0  0  0  0
   -3.3326    0.8460    0.7783 C   0  0  0  0  0  0  0  0  0  0  0  0
   -3.5518    2.3366    1.0713 C   0  0  0  0  0  0  0  0  0  0  0  0
   -4.5783    2.5442    2.0354 O   0  0  0  0  0  0  0  0  0  0  0  0
   -4.5497    0.2384    0.0610 C   0  0  0  0  0  0  0  0  0  0  0  0
   -4.2747   -1.2335   -0.2485 C   0  0  0  0  0  0  0  0  0  0  0  0
   -2.9631   -1.3836   -1.0158 C   0  0  0  0  0  0  0  0  0  0  0  0
   -2.6931   -2.7827   -1.1941 O   0  0  0  0  0  0  0  0  0  0  0  0
   -5.3680   -1.7614   -1.0148 O   0  0  0  0  0  0  0  0  0  0  0  0
   -5.7326    0.3481    0.8602 O   0  0  0  0  0  0  0  0  0  0  0  0
    1.9770   -1.6704   -1.7207 O   0  0  0  0  0  0  0  0  0  0  0  0
    4.0013    0.1248   -1.8283 O   0  0  0  0  0  0  0  0  0  0  0  0
    2.6206    0.1094    1.5870 O   0  0  0  0  0  0  0  0  0  0  0  0
    5.9184   -0.2934   -0.0456 O   0  0  0  0  0  0  0  0  0  0  0  0
    7.0233    1.4442    0.9087 H   0  0  0  0  0  0  0  0  0  0  0  0
    4.9896    2.2052   -0.0316 H   0  0  0  0  0  0  0  0  0  0  0  0
    4.4015    2.1935    1.6509 H   0  0  0  0  0  0  0  0  0  0  0  0
    5.2268   -0.1935    1.8615 H   0  0  0  0  0  0  0  0  0  0  0  0
    3.5332   -1.3430    0.4563 H   0  0  0  0  0  0  0  0  0  0  0  0
    2.8319    1.4011   -0.7073 H   0  0  0  0  0  0  0  0  0  0  0  0
    1.4019    0.1943   -2.2583 H   0  0  0  0  0  0  0  0  0  0  0  0
    0.6878   -0.9712    0.4875 H   0  0  0  0  0  0  0  0  0  0  0  0
    0.3358    0.7263    0.0047 H   0  0  0  0  0  0  0  0  0  0  0  0
   -1.6404   -1.1872    0.7053 H   0  0  0  0  0  0  0  0  0  0  0  0
   -3.1832    0.3383    1.7413 H   0  0  0  0  0  0  0  0  0  0  0  0
   -3.8099    2.8824    0.1570 H   0  0  0  0  0  0  0  0  0  0  0  0
   -2.6298    2.7848    1.4565 H   0  0  0  0  0  0  0  0  0  0  0  0
   -5.3209    1.9482    1.7968 H   0  0  0  0  0  0  0  0  0  0  0  0
   -4.7449    0.7746   -0.8764 H   0  0  0  0  0  0  0  0  0  0  0  0
   -4.2517   -1.8214    0.6777 H   0  0  0  0  0  0  0  0  0  0  0  0
   -3.0694   -0.9574   -2.0213 H   0  0  0  0  0  0  0  0  0  0  0  0
   -1.8150   -2.8279   -1.6193 H   0  0  0  0  0  0  0  0  0  0  0  0
   -5.0689   -2.6452   -1.3123 H   0  0  0  0  0  0  0  0  0  0  0  0
   -6.3908   -0.2291    0.4176 H   0  0  0  0  0  0  0  0  0  0  0  0
    1.1161   -2.0415   -1.9954 H   0  0  0  0  0  0  0  0  0  0  0  0
    3.7827   -0.7486   -2.2246 H   0  0  0  0  0  0  0  0  0  0  0  0
    2.9572   -0.2999    2.4060 H   0  0  0  0  0  0  0  0  0  0  0  0
    5.5814   -0.0642   -0.9403 H   0  0  0  0  0  0  0  0  0  0  0  0
  1  2  1  0
  2  3  1  0
  3  4  1  0
  4  5  1  0
  5  6  1  0
  6  7  1  0
  7  8  1  0
  8  9  1  0
  9 10  1  0
 10 11  1  0
 11 12  1  0
 12 13  1  0
 11 14  1  0
 14 15  1  0
 15 16  1  0
 16 17  1  0
 15 18  1  0
 14 19  1  0
  6 20  1  0
  5 21  1  0
  4 22  1  0
  3 23  1  0
 16  9  1  0
  1 24  1  0
  2 25  1  0
  2 26  1  0
  3 27  1  0
  4 28  1  0
  5 29  1  0
  6 30  1  0
  7 31  1  0
  7 32  1  0
  9 33  1  0
 11 34  1  0
 12 35  1  0
 12 36  1  0
 13 37  1  0
 14 38  1  0
 15 39  1  0
 16 40  1  0
 17 41  1  0
 18 42  1  0
 19 43  1  0
 20 44  1  0
 21 45  1  0
 22 46  1  0
 23 47  1  0
M  END
