
     RDKit          3D

 38 39  0  0  0  0  0  0  0  0999 V2000
   -4.9596    2.1594   -1.4424 C   0  0  0  0  0  0  0  0  0  0  0  0
   -4.3949    1.9870   -0.1476 O   0  0  0  0  0  0  0  0  0  0  0  0
   -3.5719    0.9030    0.0198 C   0  0  0  0  0  0  0  0  0  0  0  0
   -3.2232   -0.0268   -0.9576 C   0  0  0  0  0  0  0  0  0  0  0  0
   -2.3662   -1.0886   -0.6408 C   0  0  0  0  0  0  0  0  0  0  0  0
   -1.8493   -1.2371    0.6544 C   0  0  0  0  0  0  0  0  0  0  0  0
   -2.1979   -0.3003    1.6336 C   0  0  0  0  0  0  0  0  0  0  0  0
   -3.0484    0.7505    1.3085 C   0  0  0  0  0  0  0  0  0  0  0  0
   -3.3673    1.6495    2.2909 O   0  0  0  0  0  0  0  0  0  0  0  0
   -0.9077   -2.3726    0.9807 C   0  0  0  0  0  0  0  0  0  0  0  0
    0.5605   -1.9482    0.9193 C   0  0  0  0  0  0  0  0  0  0  0  0
    1.0551   -1.7712   -0.5069 C   0  0  0  0  0  0  0  0  0  0  0  0
    0.5846   -2.4040   -1.4509 O   0  0  0  0  0  0  0  0  0  0  0  0
    2.1758   -0.8216   -0.7672 C   0  0  0  0  0  0  0  0  0  0  0  0
    2.3572   -0.3490   -2.0745 C   0  0  0  0  0  0  0  0  0  0  0  0
    3.3928    0.5391   -2.3689 C   0  0  0  0  0  0  0  0  0  0  0  0
    4.2600    0.9569   -1.3594 C   0  0  0  0  0  0  0  0  0  0  0  0
    4.0944    0.4815   -0.0527 C   0  0  0  0  0  0  0  0  0  0  0  0
    3.0526   -0.4105    0.2424 C   0  0  0  0  0  0  0  0  0  0  0  0
    4.9977    0.8875    1.0508 C   0  0  0  0  0  0  0  0  0  0  0  0
    4.9214    0.5049    2.2036 O   0  0  0  0  0  0  0  0  0  0  0  0
    5.9497    1.7510    0.6590 O   0  0  0  0  0  0  0  0  0  0  0  0
   -5.5941    1.3090   -1.7132 H   0  0  0  0  0  0  0  0  0  0  0  0
   -5.5931    3.0513   -1.4139 H   0  0  0  0  0  0  0  0  0  0  0  0
   -4.1806    2.3285   -2.1931 H   0  0  0  0  0  0  0  0  0  0  0  0
   -3.5929    0.0400   -1.9749 H   0  0  0  0  0  0  0  0  0  0  0  0
   -2.0969   -1.8023   -1.4190 H   0  0  0  0  0  0  0  0  0  0  0  0
   -1.8147   -0.3808    2.6470 H   0  0  0  0  0  0  0  0  0  0  0  0
   -3.9690    2.2862    1.8584 H   0  0  0  0  0  0  0  0  0  0  0  0
   -1.1354   -2.7296    1.9935 H   0  0  0  0  0  0  0  0  0  0  0  0
   -1.1030   -3.2231    0.3160 H   0  0  0  0  0  0  0  0  0  0  0  0
    1.1805   -2.7269    1.3784 H   0  0  0  0  0  0  0  0  0  0  0  0
    0.6951   -1.0203    1.4852 H   0  0  0  0  0  0  0  0  0  0  0  0
    1.6873   -0.6712   -2.8706 H   0  0  0  0  0  0  0  0  0  0  0  0
    3.5236    0.9028   -3.3856 H   0  0  0  0  0  0  0  0  0  0  0  0
    5.0639    1.6483   -1.6022 H   0  0  0  0  0  0  0  0  0  0  0  0
    2.9528   -0.7821    1.2593 H   0  0  0  0  0  0  0  0  0  0  0  0
    6.4609    1.9298    1.4763 H   0  0  0  0  0  0  0  0  0  0  0  0
  1  2  1  0
  2  3  1  0
  3  4  2  0
  4  5  1  0
  5  6  2  0
  6  7  1  0
  7  8  2  0
  8  9  1  0
  6 10  1  0
 10 11  1  0
 11 12  1  0
 12 13  2  0
 12 14  1  0
 14 15  2  0
 15 16  1  0
 16 17  2  0
 17 18  1  0
 18 19  2  0
 18 20  1  0
 20 21  2  0
 20 22  1  0
  8  3  1  0
 19 14  1  0
  1 23  1  0
  1 24  1  0
  1 25  1  0
  4 26  1  0
  5 27  1  0
  7 28  1  0
  9 29  1  0
 10 30  1  0
 10 31  1  0
 11 32  1  0
 11 33  1  0
 15 34  1  0
 16 35  1  0
 17 36  1  0
 19 37  1  0
 22 38  1  0
M  END
