
     RDKit          3D

 44 46  0  0  0  0  0  0  0  0999 V2000
   -6.1318   -1.1559    1.1978 C   0  0  0  0  0  0  0  0  0  0  0  0
   -5.3855   -0.7466    0.0574 O   0  0  0  0  0  0  0  0  0  0  0  0
   -4.0256   -0.6696    0.2105 C   0  0  0  0  0  0  0  0  0  0  0  0
   -3.3074   -0.9588    1.3678 C   0  0  0  0  0  0  0  0  0  0  0  0
   -1.9111   -0.8352    1.3771 C   0  0  0  0  0  0  0  0  0  0  0  0
   -1.2096   -0.4184    0.2331 C   0  0  0  0  0  0  0  0  0  0  0  0
   -1.9384   -0.1310   -0.9285 C   0  0  0  0  0  0  0  0  0  0  0  0
   -3.3238   -0.2588   -0.9266 C   0  0  0  0  0  0  0  0  0  0  0  0
   -3.9964    0.0302   -2.0834 O   0  0  0  0  0  0  0  0  0  0  0  0
    0.3079   -0.3002    0.2798 C   0  0  0  0  0  0  0  0  0  0  0  0
    0.9559   -1.3859   -0.5940 C   0  0  0  0  0  0  0  0  0  0  0  0
    2.4581   -1.2735   -0.6302 C   0  0  0  0  0  0  0  0  0  0  0  0
    3.2158   -2.3957   -1.0005 C   0  0  0  0  0  0  0  0  0  0  0  0
    4.6048   -2.3210   -1.0534 C   0  0  0  0  0  0  0  0  0  0  0  0
    5.2848   -3.4460   -1.4142 O   0  0  0  0  0  0  0  0  0  0  0  0
    5.2692   -1.1406   -0.7468 C   0  0  0  0  0  0  0  0  0  0  0  0
    4.5263   -0.0183   -0.3895 C   0  0  0  0  0  0  0  0  0  0  0  0
    3.1236   -0.0704   -0.3414 C   0  0  0  0  0  0  0  0  0  0  0  0
    2.3405    1.1368    0.0274 C   0  0  0  0  0  0  0  0  0  0  0  0
    2.9430    2.1272    0.4441 O   0  0  0  0  0  0  0  0  0  0  0  0
    0.8241    1.0807   -0.1538 C   0  0  0  0  0  0  0  0  0  0  0  0
    0.2314    2.0863    0.6857 O   0  0  0  0  0  0  0  0  0  0  0  0
    0.0872    3.3103    0.1088 C   0  0  0  0  0  0  0  0  0  0  0  0
    0.3641    3.5878   -1.0493 O   0  0  0  0  0  0  0  0  0  0  0  0
   -0.4830    4.2778    1.0993 C   0  0  0  0  0  0  0  0  0  0  0  0
    5.2448    1.1113   -0.0983 O   0  0  0  0  0  0  0  0  0  0  0  0
   -7.1898   -1.1644    0.9187 H   0  0  0  0  0  0  0  0  0  0  0  0
   -5.8597   -2.1716    1.5035 H   0  0  0  0  0  0  0  0  0  0  0  0
   -6.0108   -0.4472    2.0238 H   0  0  0  0  0  0  0  0  0  0  0  0
   -3.7960   -1.2823    2.2807 H   0  0  0  0  0  0  0  0  0  0  0  0
   -1.3753   -1.0667    2.2964 H   0  0  0  0  0  0  0  0  0  0  0  0
   -1.4490    0.1928   -1.8432 H   0  0  0  0  0  0  0  0  0  0  0  0
   -4.9388   -0.1142   -1.8694 H   0  0  0  0  0  0  0  0  0  0  0  0
    0.6246   -0.4596    1.3218 H   0  0  0  0  0  0  0  0  0  0  0  0
    0.6719   -2.3730   -0.2058 H   0  0  0  0  0  0  0  0  0  0  0  0
    0.5909   -1.3280   -1.6277 H   0  0  0  0  0  0  0  0  0  0  0  0
    2.7285   -3.3368   -1.2483 H   0  0  0  0  0  0  0  0  0  0  0  0
    6.2363   -3.2457   -1.4216 H   0  0  0  0  0  0  0  0  0  0  0  0
    6.3518   -1.0720   -0.7806 H   0  0  0  0  0  0  0  0  0  0  0  0
    0.5996    1.2621   -1.2126 H   0  0  0  0  0  0  0  0  0  0  0  0
    0.1796    4.3558    1.9650 H   0  0  0  0  0  0  0  0  0  0  0  0
   -0.5654    5.2650    0.6357 H   0  0  0  0  0  0  0  0  0  0  0  0
   -1.4797    3.9501    1.4052 H   0  0  0  0  0  0  0  0  0  0  0  0
    4.6124    1.8131    0.1798 H   0  0  0  0  0  0  0  0  0  0  0  0
  1  2  1  0
  2  3  1  0
  3  4  2  0
  4  5  1  0
  5  6  2  0
  6  7  1  0
  7  8  2  0
  8  9  1  0
  6 10  1  0
 10 11  1  0
 11 12  1  0
 12 13  2  0
 13 14  1  0
 14 15  1  0
 14 16  2  0
 16 17  1  0
 17 18  2  0
 18 19  1  0
 19 20  2  0
 19 21  1  0
 21 22  1  0
 22 23  1  0
 23 24  2  0
 23 25  1  0
 17 26  1  0
  8  3  1  0
 21 10  1  0
 18 12  1  0
  1 27  1  0
  1 28  1  0
  1 29  1  0
  4 30  1  0
  5 31  1  0
  7 32  1  0
  9 33  1  0
 10 34  1  0
 11 35  1  0
 11 36  1  0
 13 37  1  0
 15 38  1  0
 16 39  1  0
 21 40  1  0
 25 41  1  0
 25 42  1  0
 25 43  1  0
 26 44  1  0
M  END
