
     RDKit          3D

 34 35  0  0  0  0  0  0  0  0999 V2000
    5.9830    1.1785    0.6383 C   0  0  0  0  0  0  0  0  0  0  0  0
    5.1095    0.7117   -0.3838 O   0  0  0  0  0  0  0  0  0  0  0  0
    3.7916    0.5601   -0.0395 C   0  0  0  0  0  0  0  0  0  0  0  0
    3.2299    0.8151    1.2084 C   0  0  0  0  0  0  0  0  0  0  0  0
    1.8584    0.6115    1.4083 C   0  0  0  0  0  0  0  0  0  0  0  0
    1.0361    0.1543    0.3723 C   0  0  0  0  0  0  0  0  0  0  0  0
    1.5947   -0.1025   -0.8773 C   0  0  0  0  0  0  0  0  0  0  0  0
    2.9589    0.1026   -1.0674 C   0  0  0  0  0  0  0  0  0  0  0  0
    3.4810   -0.1577   -2.3073 O   0  0  0  0  0  0  0  0  0  0  0  0
   -0.2799    0.0027    0.7142 O   0  0  0  0  0  0  0  0  0  0  0  0
   -1.1692   -0.4431   -0.3173 C   0  0  0  0  0  0  0  0  0  0  0  0
   -2.5885   -0.5752    0.2034 C   0  0  0  0  0  0  0  0  0  0  0  0
   -2.8275   -0.6851    1.5876 C   0  0  0  0  0  0  0  0  0  0  0  0
   -4.1248   -0.7886    2.0948 C   0  0  0  0  0  0  0  0  0  0  0  0
   -5.2132   -0.7902    1.2303 C   0  0  0  0  0  0  0  0  0  0  0  0
   -5.0025   -0.7040   -0.1445 C   0  0  0  0  0  0  0  0  0  0  0  0
   -3.6999   -0.6160   -0.6667 C   0  0  0  0  0  0  0  0  0  0  0  0
   -3.6071   -0.5615   -2.1481 C   0  0  0  0  0  0  0  0  0  0  0  0
   -4.4564   -0.1146   -2.8967 O   0  0  0  0  0  0  0  0  0  0  0  0
   -2.4972   -1.1447   -2.6305 O   0  0  0  0  0  0  0  0  0  0  0  0
    5.6951    2.1793    0.9768 H   0  0  0  0  0  0  0  0  0  0  0  0
    6.0236    0.4732    1.4750 H   0  0  0  0  0  0  0  0  0  0  0  0
    6.9884    1.2476    0.2120 H   0  0  0  0  0  0  0  0  0  0  0  0
    3.8198    1.1711    2.0457 H   0  0  0  0  0  0  0  0  0  0  0  0
    1.4244    0.8135    2.3853 H   0  0  0  0  0  0  0  0  0  0  0  0
    1.0097   -0.4590   -1.7171 H   0  0  0  0  0  0  0  0  0  0  0  0
    4.4331    0.0473   -2.2264 H   0  0  0  0  0  0  0  0  0  0  0  0
   -1.1542    0.3046   -1.1186 H   0  0  0  0  0  0  0  0  0  0  0  0
   -0.8464   -1.4276   -0.6762 H   0  0  0  0  0  0  0  0  0  0  0  0
   -1.9962   -0.6819    2.2912 H   0  0  0  0  0  0  0  0  0  0  0  0
   -4.2817   -0.8627    3.1683 H   0  0  0  0  0  0  0  0  0  0  0  0
   -6.2238   -0.8634    1.6236 H   0  0  0  0  0  0  0  0  0  0  0  0
   -5.8609   -0.7145   -0.8144 H   0  0  0  0  0  0  0  0  0  0  0  0
   -2.6077   -1.0869   -3.6036 H   0  0  0  0  0  0  0  0  0  0  0  0
  1  2  1  0
  2  3  1  0
  3  4  2  0
  4  5  1  0
  5  6  2  0
  6  7  1  0
  7  8  2  0
  8  9  1  0
  6 10  1  0
 10 11  1  0
 11 12  1  0
 12 13  2  0
 13 14  1  0
 14 15  2  0
 15 16  1  0
 16 17  2  0
 17 18  1  0
 18 19  2  0
 18 20  1  0
  8  3  1  0
 17 12  1  0
  1 21  1  0
  1 22  1  0
  1 23  1  0
  4 24  1  0
  5 25  1  0
  7 26  1  0
  9 27  1  0
 11 28  1  0
 11 29  1  0
 13 30  1  0
 14 31  1  0
 15 32  1  0
 16 33  1  0
 20 34  1  0
M  END
