
     RDKit          3D

 25 25  0  0  0  0  0  0  0  0999 V2000
   -4.9078   -0.7970    0.6434 C   0  0  0  0  0  0  0  0  0  0  0  0
   -3.9887   -0.4926   -0.3987 O   0  0  0  0  0  0  0  0  0  0  0  0
   -2.6642   -0.4525   -0.0630 C   0  0  0  0  0  0  0  0  0  0  0  0
   -2.1308   -0.6793    1.2049 C   0  0  0  0  0  0  0  0  0  0  0  0
   -0.7475   -0.6059    1.4076 C   0  0  0  0  0  0  0  0  0  0  0  0
    0.1152   -0.2960    0.3478 C   0  0  0  0  0  0  0  0  0  0  0  0
   -0.4196   -0.0847   -0.9269 C   0  0  0  0  0  0  0  0  0  0  0  0
   -1.8026   -0.1591   -1.1236 C   0  0  0  0  0  0  0  0  0  0  0  0
    1.5756   -0.2401    0.6303 C   0  0  0  0  0  0  0  0  0  0  0  0
    2.0433   -0.8590    1.5810 O   0  0  0  0  0  0  0  0  0  0  0  0
    2.4324    0.6050   -0.2390 C   0  0  0  0  0  0  0  0  0  0  0  0
    3.7634    0.5468   -0.0943 C   0  0  0  0  0  0  0  0  0  0  0  0
    4.6089    1.3887   -0.9423 C   0  0  0  0  0  0  0  0  0  0  0  0
    4.2414    2.1572   -1.8102 O   0  0  0  0  0  0  0  0  0  0  0  0
    5.9026    1.2055   -0.6420 O   0  0  0  0  0  0  0  0  0  0  0  0
   -4.7258   -1.7972    1.0503 H   0  0  0  0  0  0  0  0  0  0  0  0
   -5.9142   -0.7905    0.2138 H   0  0  0  0  0  0  0  0  0  0  0  0
   -4.8769   -0.0372    1.4312 H   0  0  0  0  0  0  0  0  0  0  0  0
   -2.7579   -0.9185    2.0575 H   0  0  0  0  0  0  0  0  0  0  0  0
   -0.3449   -0.7914    2.4024 H   0  0  0  0  0  0  0  0  0  0  0  0
    0.2116    0.1160   -1.7874 H   0  0  0  0  0  0  0  0  0  0  0  0
   -2.2144    0.0056   -2.1172 H   0  0  0  0  0  0  0  0  0  0  0  0
    1.9697    1.2707   -0.9571 H   0  0  0  0  0  0  0  0  0  0  0  0
    4.2512   -0.0987    0.6269 H   0  0  0  0  0  0  0  0  0  0  0  0
    6.3803    1.8044   -1.2525 H   0  0  0  0  0  0  0  0  0  0  0  0
  1  2  1  0
  2  3  1  0
  3  4  2  0
  4  5  1  0
  5  6  2  0
  6  7  1  0
  7  8  2  0
  6  9  1  0
  9 10  2  0
  9 11  1  0
 11 12  2  3
 12 13  1  0
 13 14  2  0
 13 15  1  0
  8  3  1  0
  1 16  1  0
  1 17  1  0
  1 18  1  0
  4 19  1  0
  5 20  1  0
  7 21  1  0
  8 22  1  0
 11 23  1  0
 12 24  1  0
 15 25  1  0
M  END
