
     RDKit          3D

 37 39  0  0  0  0  0  0  0  0999 V2000
    6.2172    0.0022   -0.6278 C   0  0  0  0  0  0  0  0  0  0  0  0
    5.2780   -0.7350    0.1463 O   0  0  0  0  0  0  0  0  0  0  0  0
    3.9595   -0.3878    0.0014 C   0  0  0  0  0  0  0  0  0  0  0  0
    3.4563    0.6150   -0.8240 C   0  0  0  0  0  0  0  0  0  0  0  0
    2.0771    0.8605   -0.8689 C   0  0  0  0  0  0  0  0  0  0  0  0
    1.1781    0.1060   -0.0955 C   0  0  0  0  0  0  0  0  0  0  0  0
    1.6927   -0.8962    0.7390 C   0  0  0  0  0  0  0  0  0  0  0  0
    3.0631   -1.1309    0.7762 C   0  0  0  0  0  0  0  0  0  0  0  0
    3.5250   -2.1193    1.6037 O   0  0  0  0  0  0  0  0  0  0  0  0
   -0.3128    0.4121   -0.1470 C   0  0  0  0  0  0  0  0  0  0  0  0
   -1.0190   -0.8373   -0.0447 O   0  0  0  0  0  0  0  0  0  0  0  0
   -2.3782   -0.7104    0.0175 C   0  0  0  0  0  0  0  0  0  0  0  0
   -3.1224   -1.8255   -0.3666 C   0  0  0  0  0  0  0  0  0  0  0  0
   -4.5132   -1.7736   -0.3304 C   0  0  0  0  0  0  0  0  0  0  0  0
   -5.1990   -2.8837   -0.7250 O   0  0  0  0  0  0  0  0  0  0  0  0
   -5.1766   -0.6264    0.0934 C   0  0  0  0  0  0  0  0  0  0  0  0
   -4.4301    0.4787    0.4953 C   0  0  0  0  0  0  0  0  0  0  0  0
   -3.0306    0.4365    0.4665 C   0  0  0  0  0  0  0  0  0  0  0  0
   -2.2186    1.5719    0.9299 C   0  0  0  0  0  0  0  0  0  0  0  0
   -2.7677    2.6116    1.2991 O   0  0  0  0  0  0  0  0  0  0  0  0
   -0.7145    1.3855    0.9668 C   0  0  0  0  0  0  0  0  0  0  0  0
   -0.1111    2.6715    0.7896 O   0  0  0  0  0  0  0  0  0  0  0  0
   -5.1366    1.5735    0.9154 O   0  0  0  0  0  0  0  0  0  0  0  0
    7.2140   -0.3908   -0.4058 H   0  0  0  0  0  0  0  0  0  0  0  0
    6.2087    1.0624   -0.3538 H   0  0  0  0  0  0  0  0  0  0  0  0
    6.0374   -0.1321   -1.6996 H   0  0  0  0  0  0  0  0  0  0  0  0
    4.1025    1.2300   -1.4410 H   0  0  0  0  0  0  0  0  0  0  0  0
    1.7073    1.6614   -1.5077 H   0  0  0  0  0  0  0  0  0  0  0  0
    1.0374   -1.5017    1.3598 H   0  0  0  0  0  0  0  0  0  0  0  0
    4.4934   -2.1199    1.4745 H   0  0  0  0  0  0  0  0  0  0  0  0
   -0.5350    0.8405   -1.1354 H   0  0  0  0  0  0  0  0  0  0  0  0
   -2.6220   -2.7305   -0.7016 H   0  0  0  0  0  0  0  0  0  0  0  0
   -6.1524   -2.7116   -0.6434 H   0  0  0  0  0  0  0  0  0  0  0  0
   -6.2605   -0.5760    0.1241 H   0  0  0  0  0  0  0  0  0  0  0  0
   -0.4484    1.0052    1.9600 H   0  0  0  0  0  0  0  0  0  0  0  0
   -0.6016    3.2860    1.3710 H   0  0  0  0  0  0  0  0  0  0  0  0
   -4.4975    2.2784    1.1659 H   0  0  0  0  0  0  0  0  0  0  0  0
  1  2  1  0
  2  3  1  0
  3  4  2  0
  4  5  1  0
  5  6  2  0
  6  7  1  0
  7  8  2  0
  8  9  1  0
  6 10  1  0
 10 11  1  0
 11 12  1  0
 12 13  2  0
 13 14  1  0
 14 15  1  0
 14 16  2  0
 16 17  1  0
 17 18  2  0
 18 19  1  0
 19 20  2  0
 19 21  1  0
 21 22  1  0
 17 23  1  0
  8  3  1  0
 21 10  1  0
 18 12  1  0
  1 24  1  0
  1 25  1  0
  1 26  1  0
  4 27  1  0
  5 28  1  0
  7 29  1  0
  9 30  1  0
 10 31  1  0
 13 32  1  0
 15 33  1  0
 16 34  1  0
 21 35  1  0
 22 36  1  0
 23 37  1  0
M  END
