
     RDKit          3D

 34 36  0  0  0  0  0  0  0  0999 V2000
   -4.7364   -2.4617    1.4712 O   0  0  0  0  0  0  0  0  0  0  0  0
   -3.9959   -1.5262    0.8116 C   0  0  0  0  0  0  0  0  0  0  0  0
   -2.6147   -1.5547    0.9846 C   0  0  0  0  0  0  0  0  0  0  0  0
   -1.8170   -0.6108    0.3386 C   0  0  0  0  0  0  0  0  0  0  0  0
   -0.4712   -0.7026    0.5569 O   0  0  0  0  0  0  0  0  0  0  0  0
    0.2500    0.5206    0.3250 C   0  0  0  0  0  0  0  0  0  0  0  0
    1.7338    0.2239    0.5027 C   0  0  0  0  0  0  0  0  0  0  0  0
    2.5783    1.1928    1.0790 C   0  0  0  0  0  0  0  0  0  0  0  0
    3.9484    0.9559    1.2333 C   0  0  0  0  0  0  0  0  0  0  0  0
    4.4786   -0.2532    0.8041 C   0  0  0  0  0  0  0  0  0  0  0  0
    3.6557   -1.2148    0.2258 C   0  0  0  0  0  0  0  0  0  0  0  0
    2.2949   -0.9890    0.0692 C   0  0  0  0  0  0  0  0  0  0  0  0
    4.1868   -2.3990   -0.2000 O   0  0  0  0  0  0  0  0  0  0  0  0
    5.8095   -0.5435    0.9247 O   0  0  0  0  0  0  0  0  0  0  0  0
   -0.0342    1.0936   -1.0679 C   0  0  0  0  0  0  0  0  0  0  0  0
   -1.5316    1.2725   -1.2231 C   0  0  0  0  0  0  0  0  0  0  0  0
   -2.0248    2.1412   -1.9447 O   0  0  0  0  0  0  0  0  0  0  0  0
   -2.4042    0.3336   -0.5018 C   0  0  0  0  0  0  0  0  0  0  0  0
   -3.7948    0.3551   -0.6654 C   0  0  0  0  0  0  0  0  0  0  0  0
   -4.5962   -0.5737   -0.0059 C   0  0  0  0  0  0  0  0  0  0  0  0
   -4.4394    1.2588   -1.4668 O   0  0  0  0  0  0  0  0  0  0  0  0
    0.5795    2.3742   -1.2491 O   0  0  0  0  0  0  0  0  0  0  0  0
   -5.6754   -2.3309    1.2557 H   0  0  0  0  0  0  0  0  0  0  0  0
   -2.1642   -2.3061    1.6281 H   0  0  0  0  0  0  0  0  0  0  0  0
   -0.0465    1.2356    1.1066 H   0  0  0  0  0  0  0  0  0  0  0  0
    2.1696    2.1497    1.4003 H   0  0  0  0  0  0  0  0  0  0  0  0
    4.5733    1.7229    1.6790 H   0  0  0  0  0  0  0  0  0  0  0  0
    1.6808   -1.7616   -0.3860 H   0  0  0  0  0  0  0  0  0  0  0  0
    5.1381   -2.3296    0.0158 H   0  0  0  0  0  0  0  0  0  0  0  0
    6.2469    0.2203    1.3385 H   0  0  0  0  0  0  0  0  0  0  0  0
    0.3075    0.4231   -1.8652 H   0  0  0  0  0  0  0  0  0  0  0  0
   -5.6721   -0.5429   -0.1461 H   0  0  0  0  0  0  0  0  0  0  0  0
   -3.7665    1.8542   -1.8676 H   0  0  0  0  0  0  0  0  0  0  0  0
    0.1533    2.7727   -2.0338 H   0  0  0  0  0  0  0  0  0  0  0  0
  1  2  1  0
  2  3  2  0
  3  4  1  0
  4  5  1  0
  5  6  1  0
  6  7  1  0
  7  8  2  0
  8  9  1  0
  9 10  2  0
 10 11  1  0
 11 12  2  0
 11 13  1  0
 10 14  1  0
  6 15  1  0
 15 16  1  0
 16 17  2  0
 16 18  1  0
 18 19  1  0
 19 20  2  0
 19 21  1  0
 15 22  1  0
 20  2  1  0
 18  4  2  0
 12  7  1  0
  1 23  1  0
  3 24  1  0
  6 25  1  0
  8 26  1  0
  9 27  1  0
 12 28  1  0
 13 29  1  0
 14 30  1  0
 15 31  1  0
 20 32  1  0
 21 33  1  0
 22 34  1  0
M  END
