
     RDKit          3D

 31 33  0  0  0  0  0  0  0  0999 V2000
    5.8928   -0.7491   -0.0629 O   0  0  0  0  0  0  0  0  0  0  0  0
    4.5482   -0.5491   -0.1655 C   0  0  0  0  0  0  0  0  0  0  0  0
    3.7742   -1.5937   -0.6539 C   0  0  0  0  0  0  0  0  0  0  0  0
    2.3930   -1.4335   -0.7779 C   0  0  0  0  0  0  0  0  0  0  0  0
    1.7789   -0.2235   -0.4149 C   0  0  0  0  0  0  0  0  0  0  0  0
    2.5814    0.8165    0.0831 C   0  0  0  0  0  0  0  0  0  0  0  0
    3.9641    0.6566    0.2049 C   0  0  0  0  0  0  0  0  0  0  0  0
    0.2731   -0.0799   -0.5277 C   0  0  0  0  0  0  0  0  0  0  0  0
   -0.0580    1.2824   -0.8676 O   0  0  0  0  0  0  0  0  0  0  0  0
   -1.3587    1.6643   -0.8799 C   0  0  0  0  0  0  0  0  0  0  0  0
   -1.7316    2.7015   -1.4176 O   0  0  0  0  0  0  0  0  0  0  0  0
   -2.3379    0.7871   -0.1902 C   0  0  0  0  0  0  0  0  0  0  0  0
   -1.8859   -0.2656    0.6213 C   0  0  0  0  0  0  0  0  0  0  0  0
   -0.4088   -0.4819    0.7787 C   0  0  0  0  0  0  0  0  0  0  0  0
   -2.8117   -1.0652    1.3033 C   0  0  0  0  0  0  0  0  0  0  0  0
   -4.1795   -0.8297    1.1585 C   0  0  0  0  0  0  0  0  0  0  0  0
   -4.6298    0.2121    0.3476 C   0  0  0  0  0  0  0  0  0  0  0  0
   -3.7131    1.0233   -0.3168 C   0  0  0  0  0  0  0  0  0  0  0  0
   -4.2381    2.0376   -1.0719 O   0  0  0  0  0  0  0  0  0  0  0  0
    6.3034    0.0709    0.2571 H   0  0  0  0  0  0  0  0  0  0  0  0
    4.2456   -2.5299   -0.9396 H   0  0  0  0  0  0  0  0  0  0  0  0
    1.8020   -2.2618   -1.1628 H   0  0  0  0  0  0  0  0  0  0  0  0
    2.1332    1.7651    0.3741 H   0  0  0  0  0  0  0  0  0  0  0  0
    4.5609    1.4788    0.5868 H   0  0  0  0  0  0  0  0  0  0  0  0
   -0.0745   -0.7038   -1.3631 H   0  0  0  0  0  0  0  0  0  0  0  0
   -0.0610    0.1365    1.6158 H   0  0  0  0  0  0  0  0  0  0  0  0
   -0.1927   -1.5306    1.0153 H   0  0  0  0  0  0  0  0  0  0  0  0
   -2.4764   -1.8744    1.9492 H   0  0  0  0  0  0  0  0  0  0  0  0
   -4.8986   -1.4540    1.6839 H   0  0  0  0  0  0  0  0  0  0  0  0
   -5.6953    0.4003    0.2411 H   0  0  0  0  0  0  0  0  0  0  0  0
   -3.4993    2.5929   -1.4084 H   0  0  0  0  0  0  0  0  0  0  0  0
  1  2  1  0
  2  3  2  0
  3  4  1  0
  4  5  2  0
  5  6  1  0
  6  7  2  0
  5  8  1  0
  8  9  1  0
  9 10  1  0
 10 11  2  0
 10 12  1  0
 12 13  2  0
 13 14  1  0
 13 15  1  0
 15 16  2  0
 16 17  1  0
 17 18  2  0
 18 19  1  0
  7  2  1  0
 14  8  1  0
 18 12  1  0
  1 20  1  0
  3 21  1  0
  4 22  1  0
  6 23  1  0
  7 24  1  0
  8 25  1  0
 14 26  1  0
 14 27  1  0
 15 28  1  0
 16 29  1  0
 17 30  1  0
 19 31  1  0
M  END
