
     RDKit          3D

 38 40  0  0  0  0  0  0  0  0999 V2000
   -3.3587    2.4969   -1.1506 C   0  0  0  0  0  0  0  0  0  0  0  0
   -3.8575    1.2390   -0.7180 O   0  0  0  0  0  0  0  0  0  0  0  0
   -2.9874    0.4056   -0.0584 C   0  0  0  0  0  0  0  0  0  0  0  0
   -1.6039    0.6121    0.0180 C   0  0  0  0  0  0  0  0  0  0  0  0
   -0.7744   -0.2869    0.7095 C   0  0  0  0  0  0  0  0  0  0  0  0
   -1.3557   -1.4079    1.3148 C   0  0  0  0  0  0  0  0  0  0  0  0
   -2.7341   -1.6265    1.2376 C   0  0  0  0  0  0  0  0  0  0  0  0
   -3.5575   -0.7278    0.5528 C   0  0  0  0  0  0  0  0  0  0  0  0
   -4.9174   -0.8645    0.4235 O   0  0  0  0  0  0  0  0  0  0  0  0
   -5.5342   -1.9683    1.0695 C   0  0  0  0  0  0  0  0  0  0  0  0
    0.7281   -0.0888    0.7712 C   0  0  0  0  0  0  0  0  0  0  0  0
    1.0220    1.3195    0.8754 O   0  0  0  0  0  0  0  0  0  0  0  0
    2.3107    1.7342    0.8015 C   0  0  0  0  0  0  0  0  0  0  0  0
    2.6582    2.8567    1.1521 O   0  0  0  0  0  0  0  0  0  0  0  0
    3.3075    0.7813    0.2514 C   0  0  0  0  0  0  0  0  0  0  0  0
    2.8776   -0.4039   -0.3664 C   0  0  0  0  0  0  0  0  0  0  0  0
    1.4059   -0.6837   -0.4617 C   0  0  0  0  0  0  0  0  0  0  0  0
    3.8188   -1.2801   -0.9212 C   0  0  0  0  0  0  0  0  0  0  0  0
    5.1806   -0.9864   -0.8397 C   0  0  0  0  0  0  0  0  0  0  0  0
    5.6091    0.1877   -0.2203 C   0  0  0  0  0  0  0  0  0  0  0  0
    4.6764    1.0728    0.3148 C   0  0  0  0  0  0  0  0  0  0  0  0
    5.1797    2.2124    0.8826 O   0  0  0  0  0  0  0  0  0  0  0  0
   -4.2010    3.0714   -1.5482 H   0  0  0  0  0  0  0  0  0  0  0  0
   -2.6315    2.3724   -1.9594 H   0  0  0  0  0  0  0  0  0  0  0  0
   -2.9324    3.0658   -0.3176 H   0  0  0  0  0  0  0  0  0  0  0  0
   -1.1453    1.4731   -0.4593 H   0  0  0  0  0  0  0  0  0  0  0  0
   -0.7409   -2.1264    1.8537 H   0  0  0  0  0  0  0  0  0  0  0  0
   -3.1346   -2.5103    1.7226 H   0  0  0  0  0  0  0  0  0  0  0  0
   -5.3837   -1.9277    2.1533 H   0  0  0  0  0  0  0  0  0  0  0  0
   -6.6105   -1.9072    0.8816 H   0  0  0  0  0  0  0  0  0  0  0  0
   -5.1784   -2.9171    0.6549 H   0  0  0  0  0  0  0  0  0  0  0  0
    1.1049   -0.5556    1.6921 H   0  0  0  0  0  0  0  0  0  0  0  0
    1.2178   -1.7625   -0.5170 H   0  0  0  0  0  0  0  0  0  0  0  0
    1.0307   -0.2229   -1.3842 H   0  0  0  0  0  0  0  0  0  0  0  0
    3.5005   -2.1941   -1.4188 H   0  0  0  0  0  0  0  0  0  0  0  0
    5.9120   -1.6693   -1.2662 H   0  0  0  0  0  0  0  0  0  0  0  0
    6.6697    0.4200   -0.1640 H   0  0  0  0  0  0  0  0  0  0  0  0
    4.4291    2.7968    1.1326 H   0  0  0  0  0  0  0  0  0  0  0  0
  1  2  1  0
  2  3  1  0
  3  4  2  0
  4  5  1  0
  5  6  2  0
  6  7  1  0
  7  8  2  0
  8  9  1  0
  9 10  1  0
  5 11  1  0
 11 12  1  0
 12 13  1  0
 13 14  2  0
 13 15  1  0
 15 16  2  0
 16 17  1  0
 16 18  1  0
 18 19  2  0
 19 20  1  0
 20 21  2  0
 21 22  1  0
  8  3  1  0
 17 11  1  0
 21 15  1  0
  1 23  1  0
  1 24  1  0
  1 25  1  0
  4 26  1  0
  6 27  1  0
  7 28  1  0
 10 29  1  0
 10 30  1  0
 10 31  1  0
 11 32  1  0
 17 33  1  0
 17 34  1  0
 18 35  1  0
 19 36  1  0
 20 37  1  0
 22 38  1  0
M  END
