
     RDKit          3D

 41 43  0  0  0  0  0  0  0  0999 V2000
   -3.1927    3.3485    0.1141 C   0  0  0  0  0  0  0  0  0  0  0  0
   -3.9512    2.1722   -0.1305 O   0  0  0  0  0  0  0  0  0  0  0  0
   -3.3094    0.9664    0.0140 C   0  0  0  0  0  0  0  0  0  0  0  0
   -1.9212    0.8235    0.1354 C   0  0  0  0  0  0  0  0  0  0  0  0
   -1.3329   -0.4446    0.2771 C   0  0  0  0  0  0  0  0  0  0  0  0
   -2.1622   -1.5731    0.2820 C   0  0  0  0  0  0  0  0  0  0  0  0
   -3.5478   -1.4413    0.1527 C   0  0  0  0  0  0  0  0  0  0  0  0
   -4.1305   -0.1778    0.0163 C   0  0  0  0  0  0  0  0  0  0  0  0
   -5.4783    0.0451   -0.1196 O   0  0  0  0  0  0  0  0  0  0  0  0
   -6.3421   -1.0804   -0.0625 C   0  0  0  0  0  0  0  0  0  0  0  0
    0.1716   -0.6124    0.3774 C   0  0  0  0  0  0  0  0  0  0  0  0
    0.7297    0.4936    1.1139 O   0  0  0  0  0  0  0  0  0  0  0  0
    2.0768    0.6858    1.1507 C   0  0  0  0  0  0  0  0  0  0  0  0
    2.5599    1.5744    1.8379 O   0  0  0  0  0  0  0  0  0  0  0  0
    2.9004   -0.1907    0.2643 C   0  0  0  0  0  0  0  0  0  0  0  0
    2.2835   -0.8367   -0.8231 C   0  0  0  0  0  0  0  0  0  0  0  0
    0.8020   -0.6824   -1.0115 C   0  0  0  0  0  0  0  0  0  0  0  0
    3.0469   -1.5984   -1.7175 C   0  0  0  0  0  0  0  0  0  0  0  0
    4.4162   -1.7525   -1.5105 C   0  0  0  0  0  0  0  0  0  0  0  0
    5.0290   -1.1418   -0.4175 C   0  0  0  0  0  0  0  0  0  0  0  0
    4.2797   -0.3470    0.4563 C   0  0  0  0  0  0  0  0  0  0  0  0
    4.9170    0.1741    1.5503 O   0  0  0  0  0  0  0  0  0  0  0  0
    5.6231    1.3664    1.2020 C   0  0  0  0  0  0  0  0  0  0  0  0
   -2.4409    3.4985   -0.6674 H   0  0  0  0  0  0  0  0  0  0  0  0
   -3.8783    4.2008    0.0817 H   0  0  0  0  0  0  0  0  0  0  0  0
   -2.7335    3.3294    1.1082 H   0  0  0  0  0  0  0  0  0  0  0  0
   -1.2713    1.6937    0.1204 H   0  0  0  0  0  0  0  0  0  0  0  0
   -1.7377   -2.5699    0.3856 H   0  0  0  0  0  0  0  0  0  0  0  0
   -4.1453   -2.3466    0.1611 H   0  0  0  0  0  0  0  0  0  0  0  0
   -6.2611   -1.5936    0.9014 H   0  0  0  0  0  0  0  0  0  0  0  0
   -6.1515   -1.7664   -0.8943 H   0  0  0  0  0  0  0  0  0  0  0  0
   -7.3701   -0.7184   -0.1602 H   0  0  0  0  0  0  0  0  0  0  0  0
    0.3845   -1.5188    0.9611 H   0  0  0  0  0  0  0  0  0  0  0  0
    0.3905   -1.5268   -1.5771 H   0  0  0  0  0  0  0  0  0  0  0  0
    0.6203    0.2360   -1.5836 H   0  0  0  0  0  0  0  0  0  0  0  0
    2.5787   -2.0862   -2.5703 H   0  0  0  0  0  0  0  0  0  0  0  0
    5.0060   -2.3600   -2.1931 H   0  0  0  0  0  0  0  0  0  0  0  0
    6.0914   -1.2907   -0.2409 H   0  0  0  0  0  0  0  0  0  0  0  0
    6.5251    1.1254    0.6297 H   0  0  0  0  0  0  0  0  0  0  0  0
    4.9948    2.0657    0.6389 H   0  0  0  0  0  0  0  0  0  0  0  0
    5.9309    1.8569    2.1302 H   0  0  0  0  0  0  0  0  0  0  0  0
  1  2  1  0
  2  3  1  0
  3  4  2  0
  4  5  1  0
  5  6  2  0
  6  7  1  0
  7  8  2  0
  8  9  1  0
  9 10  1  0
  5 11  1  0
 11 12  1  0
 12 13  1  0
 13 14  2  0
 13 15  1  0
 15 16  2  0
 16 17  1  0
 16 18  1  0
 18 19  2  0
 19 20  1  0
 20 21  2  0
 21 22  1  0
 22 23  1  0
  8  3  1  0
 17 11  1  0
 21 15  1  0
  1 24  1  0
  1 25  1  0
  1 26  1  0
  4 27  1  0
  6 28  1  0
  7 29  1  0
 10 30  1  0
 10 31  1  0
 10 32  1  0
 11 33  1  0
 17 34  1  0
 17 35  1  0
 18 36  1  0
 19 37  1  0
 20 38  1  0
 23 39  1  0
 23 40  1  0
 23 41  1  0
M  END
