
     RDKit          3D

 45 47  0  0  0  0  0  0  0  0999 V2000
   -5.2135   -3.2713    0.5515 C   0  0  0  0  0  0  0  0  0  0  0  0
   -4.8350   -2.1728   -0.2662 O   0  0  0  0  0  0  0  0  0  0  0  0
   -3.5445   -1.7302   -0.1537 C   0  0  0  0  0  0  0  0  0  0  0  0
   -2.5394   -2.3416    0.5959 C   0  0  0  0  0  0  0  0  0  0  0  0
   -1.2448   -1.8031    0.6140 C   0  0  0  0  0  0  0  0  0  0  0  0
   -0.9227   -0.6524   -0.1264 C   0  0  0  0  0  0  0  0  0  0  0  0
   -1.9321   -0.0362   -0.8759 C   0  0  0  0  0  0  0  0  0  0  0  0
   -3.2231   -0.5684   -0.8706 C   0  0  0  0  0  0  0  0  0  0  0  0
   -4.1977    0.0586   -1.6568 O   0  0  0  0  0  0  0  0  0  0  0  0
   -4.9850    0.9286   -0.9114 C   0  0  0  0  0  0  0  0  0  0  0  0
   -4.8008    1.2905    0.2457 O   0  0  0  0  0  0  0  0  0  0  0  0
   -6.1098    1.4182   -1.7766 C   0  0  0  0  0  0  0  0  0  0  0  0
    0.4687   -0.0498   -0.0986 C   0  0  0  0  0  0  0  0  0  0  0  0
    1.4452   -1.0980    0.0663 O   0  0  0  0  0  0  0  0  0  0  0  0
    2.7456   -0.7818    0.3034 C   0  0  0  0  0  0  0  0  0  0  0  0
    3.6163   -1.6436    0.2970 O   0  0  0  0  0  0  0  0  0  0  0  0
    3.0441    0.6457    0.6166 C   0  0  0  0  0  0  0  0  0  0  0  0
    2.0002    1.4990    1.0102 C   0  0  0  0  0  0  0  0  0  0  0  0
    0.5967    0.9667    1.0335 C   0  0  0  0  0  0  0  0  0  0  0  0
    2.2782    2.8168    1.4038 C   0  0  0  0  0  0  0  0  0  0  0  0
    3.5889    3.2943    1.3848 C   0  0  0  0  0  0  0  0  0  0  0  0
    4.6291    2.4617    0.9704 C   0  0  0  0  0  0  0  0  0  0  0  0
    4.3522    1.1493    0.5780 C   0  0  0  0  0  0  0  0  0  0  0  0
    5.4492    0.3670    0.2049 O   0  0  0  0  0  0  0  0  0  0  0  0
    5.4981    0.1162   -1.1652 C   0  0  0  0  0  0  0  0  0  0  0  0
    4.7646    0.6006   -2.0197 O   0  0  0  0  0  0  0  0  0  0  0  0
    6.6250   -0.8338   -1.4459 C   0  0  0  0  0  0  0  0  0  0  0  0
   -6.2759   -3.4669    0.3754 H   0  0  0  0  0  0  0  0  0  0  0  0
   -5.0897   -3.0342    1.6135 H   0  0  0  0  0  0  0  0  0  0  0  0
   -4.6597   -4.1754    0.2791 H   0  0  0  0  0  0  0  0  0  0  0  0
   -2.7198   -3.2465    1.1713 H   0  0  0  0  0  0  0  0  0  0  0  0
   -0.4802   -2.3047    1.2071 H   0  0  0  0  0  0  0  0  0  0  0  0
   -1.7260    0.8556   -1.4584 H   0  0  0  0  0  0  0  0  0  0  0  0
   -6.8085    2.0023   -1.1704 H   0  0  0  0  0  0  0  0  0  0  0  0
   -5.7140    2.0518   -2.5744 H   0  0  0  0  0  0  0  0  0  0  0  0
   -6.6505    0.5665   -2.1953 H   0  0  0  0  0  0  0  0  0  0  0  0
    0.6658    0.4126   -1.0750 H   0  0  0  0  0  0  0  0  0  0  0  0
   -0.1290    1.7792    0.9028 H   0  0  0  0  0  0  0  0  0  0  0  0
    0.4199    0.5037    2.0124 H   0  0  0  0  0  0  0  0  0  0  0  0
    1.4766    3.4782    1.7275 H   0  0  0  0  0  0  0  0  0  0  0  0
    3.7997    4.3182    1.6951 H   0  0  0  0  0  0  0  0  0  0  0  0
    5.6497    2.8344    0.9549 H   0  0  0  0  0  0  0  0  0  0  0  0
    6.6098   -1.1147   -2.5037 H   0  0  0  0  0  0  0  0  0  0  0  0
    6.4985   -1.7395   -0.8465 H   0  0  0  0  0  0  0  0  0  0  0  0
    7.5796   -0.3508   -1.2187 H   0  0  0  0  0  0  0  0  0  0  0  0
  1  2  1  0
  2  3  1  0
  3  4  2  0
  4  5  1  0
  5  6  2  0
  6  7  1  0
  7  8  2  0
  8  9  1  0
  9 10  1  0
 10 11  2  0
 10 12  1  0
  6 13  1  0
 13 14  1  0
 14 15  1  0
 15 16  2  0
 15 17  1  0
 17 18  2  0
 18 19  1  0
 18 20  1  0
 20 21  2  0
 21 22  1  0
 22 23  2  0
 23 24  1  0
 24 25  1  0
 25 26  2  0
 25 27  1  0
  8  3  1  0
 19 13  1  0
 23 17  1  0
  1 28  1  0
  1 29  1  0
  1 30  1  0
  4 31  1  0
  5 32  1  0
  7 33  1  0
 12 34  1  0
 12 35  1  0
 12 36  1  0
 13 37  1  0
 19 38  1  0
 19 39  1  0
 20 40  1  0
 21 41  1  0
 22 42  1  0
 27 43  1  0
 27 44  1  0
 27 45  1  0
M  END
