
     RDKit          3D

 26 25  0  0  0  0  0  0  0  0999 V2000
    2.4338    0.9679   -1.4616 O   0  0  0  0  0  0  0  0  0  0  0  0
    2.2532    1.3547   -0.0992 C   0  0  0  0  0  0  0  0  0  0  0  0
    2.0078    0.1041    0.7462 C   0  0  0  0  0  0  0  0  0  0  0  0
    0.7841   -0.7351    0.3218 C   0  0  0  0  0  0  0  0  0  0  0  0
   -0.5518    0.0247    0.4144 C   0  0  0  0  0  0  0  0  0  0  0  0
   -1.7298   -0.8105   -0.1330 C   0  0  0  0  0  0  0  0  0  0  0  0
   -3.0680   -0.0687   -0.0127 C   0  0  0  0  0  0  0  0  0  0  0  0
   -3.0676    1.0438   -0.9155 O   0  0  0  0  0  0  0  0  0  0  0  0
   -1.5171   -1.1060   -1.5215 O   0  0  0  0  0  0  0  0  0  0  0  0
   -0.7836    0.3500    1.7949 O   0  0  0  0  0  0  0  0  0  0  0  0
    0.7159   -1.8567    1.2378 O   0  0  0  0  0  0  0  0  0  0  0  0
    3.1628   -0.7583    0.6256 O   0  0  0  0  0  0  0  0  0  0  0  0
    2.5863    1.7856   -1.9693 H   0  0  0  0  0  0  0  0  0  0  0  0
    1.4289    2.0691   -0.0321 H   0  0  0  0  0  0  0  0  0  0  0  0
    3.1763    1.8481    0.2225 H   0  0  0  0  0  0  0  0  0  0  0  0
    1.9376    0.3736    1.8056 H   0  0  0  0  0  0  0  0  0  0  0  0
    0.9396   -1.1517   -0.6796 H   0  0  0  0  0  0  0  0  0  0  0  0
   -0.4889    0.9588   -0.1520 H   0  0  0  0  0  0  0  0  0  0  0  0
   -1.8076   -1.7563    0.4145 H   0  0  0  0  0  0  0  0  0  0  0  0
   -3.2551    0.2871    1.0045 H   0  0  0  0  0  0  0  0  0  0  0  0
   -3.8880   -0.7266   -0.3187 H   0  0  0  0  0  0  0  0  0  0  0  0
   -3.8966    1.5284   -0.7520 H   0  0  0  0  0  0  0  0  0  0  0  0
   -1.8325   -0.3108   -1.9988 H   0  0  0  0  0  0  0  0  0  0  0  0
   -0.5611   -0.4719    2.2823 H   0  0  0  0  0  0  0  0  0  0  0  0
    1.6348   -2.1960    1.2763 H   0  0  0  0  0  0  0  0  0  0  0  0
    3.3865   -0.7473   -0.3281 H   0  0  0  0  0  0  0  0  0  0  0  0
  1  2  1  0
  2  3  1  0
  3  4  1  0
  4  5  1  0
  5  6  1  0
  6  7  1  0
  7  8  1  0
  6  9  1  0
  5 10  1  0
  4 11  1  0
  3 12  1  0
  1 13  1  0
  2 14  1  0
  2 15  1  0
  3 16  1  0
  4 17  1  0
  5 18  1  0
  6 19  1  0
  7 20  1  0
  7 21  1  0
  8 22  1  0
  9 23  1  0
 10 24  1  0
 11 25  1  0
 12 26  1  0
M  END
