
     RDKit          3D

 32 34  0  0  0  0  0  0  0  0999 V2000
   -4.5676   -0.2762   -2.1062 O   0  0  0  0  0  0  0  0  0  0  0  0
   -3.7872   -0.3708   -0.9896 C   0  0  0  0  0  0  0  0  0  0  0  0
   -2.4065   -0.3923   -1.1318 C   0  0  0  0  0  0  0  0  0  0  0  0
   -1.5891   -0.4880    0.0062 C   0  0  0  0  0  0  0  0  0  0  0  0
   -2.1977   -0.5507    1.2744 C   0  0  0  0  0  0  0  0  0  0  0  0
   -3.5904   -0.5322    1.4073 C   0  0  0  0  0  0  0  0  0  0  0  0
   -4.3782   -0.4423    0.2679 C   0  0  0  0  0  0  0  0  0  0  0  0
   -5.7437   -0.4191    0.3314 O   0  0  0  0  0  0  0  0  0  0  0  0
   -0.0808   -0.4818   -0.1558 C   0  0  0  0  0  0  0  0  0  0  0  0
    0.5244   -1.2417    0.9110 O   0  0  0  0  0  0  0  0  0  0  0  0
    1.8741   -1.2473    1.0381 C   0  0  0  0  0  0  0  0  0  0  0  0
    2.4627   -2.0715    1.7296 O   0  0  0  0  0  0  0  0  0  0  0  0
    2.6349   -0.1919    0.3233 C   0  0  0  0  0  0  0  0  0  0  0  0
    1.9539    0.8843   -0.2674 C   0  0  0  0  0  0  0  0  0  0  0  0
    0.4579    0.9476   -0.1601 C   0  0  0  0  0  0  0  0  0  0  0  0
    2.6778    1.8994   -0.9053 C   0  0  0  0  0  0  0  0  0  0  0  0
    4.0699    1.8296   -0.9720 C   0  0  0  0  0  0  0  0  0  0  0  0
    4.7471    0.7578   -0.3901 C   0  0  0  0  0  0  0  0  0  0  0  0
    4.0336   -0.2442    0.2631 C   0  0  0  0  0  0  0  0  0  0  0  0
    4.7763   -1.2463    0.8278 O   0  0  0  0  0  0  0  0  0  0  0  0
   -5.4841   -0.2896   -1.7644 H   0  0  0  0  0  0  0  0  0  0  0  0
   -1.9778   -0.3359   -2.1290 H   0  0  0  0  0  0  0  0  0  0  0  0
   -1.5855   -0.6221    2.1724 H   0  0  0  0  0  0  0  0  0  0  0  0
   -4.0299   -0.5890    2.3979 H   0  0  0  0  0  0  0  0  0  0  0  0
   -6.0032   -0.5032    1.2652 H   0  0  0  0  0  0  0  0  0  0  0  0
    0.1692   -1.0024   -1.0910 H   0  0  0  0  0  0  0  0  0  0  0  0
    0.0327    1.5142   -0.9970 H   0  0  0  0  0  0  0  0  0  0  0  0
    0.2042    1.4702    0.7709 H   0  0  0  0  0  0  0  0  0  0  0  0
    2.1653    2.7480   -1.3544 H   0  0  0  0  0  0  0  0  0  0  0  0
    4.6316    2.6151   -1.4725 H   0  0  0  0  0  0  0  0  0  0  0  0
    5.8322    0.7076   -0.4356 H   0  0  0  0  0  0  0  0  0  0  0  0
    4.1739   -1.8351    1.3355 H   0  0  0  0  0  0  0  0  0  0  0  0
  1  2  1  0
  2  3  2  0
  3  4  1  0
  4  5  2  0
  5  6  1  0
  6  7  2  0
  7  8  1  0
  4  9  1  0
  9 10  1  0
 10 11  1  0
 11 12  2  0
 11 13  1  0
 13 14  2  0
 14 15  1  0
 14 16  1  0
 16 17  2  0
 17 18  1  0
 18 19  2  0
 19 20  1  0
  7  2  1  0
 15  9  1  0
 19 13  1  0
  1 21  1  0
  3 22  1  0
  5 23  1  0
  6 24  1  0
  8 25  1  0
  9 26  1  0
 15 27  1  0
 15 28  1  0
 16 29  1  0
 17 30  1  0
 18 31  1  0
 20 32  1  0
M  END
