
     RDKit          3D

 34 36  0  0  0  0  0  0  0  0999 V2000
    5.8439   -0.5705   -0.3233 C   0  0  0  0  0  0  0  0  0  0  0  0
    4.9787    0.4242   -0.8594 O   0  0  0  0  0  0  0  0  0  0  0  0
    3.6331    0.2070   -0.7128 C   0  0  0  0  0  0  0  0  0  0  0  0
    3.0371   -0.8694   -0.0600 C   0  0  0  0  0  0  0  0  0  0  0  0
    1.6402   -0.9600    0.0136 C   0  0  0  0  0  0  0  0  0  0  0  0
    0.8171    0.0181   -0.5694 C   0  0  0  0  0  0  0  0  0  0  0  0
    1.4233    1.1015   -1.2196 C   0  0  0  0  0  0  0  0  0  0  0  0
    2.8101    1.1831   -1.2836 C   0  0  0  0  0  0  0  0  0  0  0  0
    3.3616    2.2584   -1.9269 O   0  0  0  0  0  0  0  0  0  0  0  0
   -0.6954   -0.0505   -0.4776 C   0  0  0  0  0  0  0  0  0  0  0  0
   -1.1161   -1.4301   -0.4325 O   0  0  0  0  0  0  0  0  0  0  0  0
   -2.4219   -1.7257   -0.2052 C   0  0  0  0  0  0  0  0  0  0  0  0
   -2.8768   -2.8435   -0.4066 O   0  0  0  0  0  0  0  0  0  0  0  0
   -3.2708   -0.6301    0.3360 C   0  0  0  0  0  0  0  0  0  0  0  0
   -2.6888    0.5527    0.8129 C   0  0  0  0  0  0  0  0  0  0  0  0
   -1.1968    0.6991    0.7559 C   0  0  0  0  0  0  0  0  0  0  0  0
   -3.4998    1.5495    1.3671 C   0  0  0  0  0  0  0  0  0  0  0  0
   -4.8832    1.3731    1.4236 C   0  0  0  0  0  0  0  0  0  0  0  0
   -5.4623    0.1997    0.9403 C   0  0  0  0  0  0  0  0  0  0  0  0
   -4.6579   -0.8048    0.4014 C   0  0  0  0  0  0  0  0  0  0  0  0
    5.7338   -0.6441    0.7636 H   0  0  0  0  0  0  0  0  0  0  0  0
    5.6786   -1.5397   -0.8056 H   0  0  0  0  0  0  0  0  0  0  0  0
    6.8735   -0.2654   -0.5336 H   0  0  0  0  0  0  0  0  0  0  0  0
    3.6219   -1.6572    0.4027 H   0  0  0  0  0  0  0  0  0  0  0  0
    1.1972   -1.8119    0.5282 H   0  0  0  0  0  0  0  0  0  0  0  0
    0.8272    1.8851   -1.6802 H   0  0  0  0  0  0  0  0  0  0  0  0
    4.3267    2.1159   -1.8683 H   0  0  0  0  0  0  0  0  0  0  0  0
   -1.1173    0.3749   -1.3991 H   0  0  0  0  0  0  0  0  0  0  0  0
   -0.7755    0.2761    1.6766 H   0  0  0  0  0  0  0  0  0  0  0  0
   -0.9127    1.7568    0.7036 H   0  0  0  0  0  0  0  0  0  0  0  0
   -3.0628    2.4666    1.7567 H   0  0  0  0  0  0  0  0  0  0  0  0
   -5.5124    2.1508    1.8509 H   0  0  0  0  0  0  0  0  0  0  0  0
   -6.5400    0.0630    0.9911 H   0  0  0  0  0  0  0  0  0  0  0  0
   -5.1135   -1.7248    0.0396 H   0  0  0  0  0  0  0  0  0  0  0  0
  1  2  1  0
  2  3  1  0
  3  4  2  0
  4  5  1  0
  5  6  2  0
  6  7  1  0
  7  8  2  0
  8  9  1  0
  6 10  1  0
 10 11  1  0
 11 12  1  0
 12 13  2  0
 12 14  1  0
 14 15  2  0
 15 16  1  0
 15 17  1  0
 17 18  2  0
 18 19  1  0
 19 20  2  0
  8  3  1  0
 16 10  1  0
 20 14  1  0
  1 21  1  0
  1 22  1  0
  1 23  1  0
  4 24  1  0
  5 25  1  0
  7 26  1  0
  9 27  1  0
 10 28  1  0
 16 29  1  0
 16 30  1  0
 17 31  1  0
 18 32  1  0
 19 33  1  0
 20 34  1  0
M  END
