
     RDKit          3D

 34 36  0  0  0  0  0  0  0  0999 V2000
    4.3150   -0.9825   -1.3658 C   0  0  0  0  0  0  0  0  0  0  0  0
    4.4468   -0.4943   -0.0350 O   0  0  0  0  0  0  0  0  0  0  0  0
    3.3241    0.0559    0.5286 C   0  0  0  0  0  0  0  0  0  0  0  0
    2.0486    0.0888   -0.0374 C   0  0  0  0  0  0  0  0  0  0  0  0
    0.9745    0.6934    0.6465 C   0  0  0  0  0  0  0  0  0  0  0  0
    1.2017    1.2535    1.9156 C   0  0  0  0  0  0  0  0  0  0  0  0
    2.4717    1.2172    2.4890 C   0  0  0  0  0  0  0  0  0  0  0  0
    3.5144    0.6209    1.7936 C   0  0  0  0  0  0  0  0  0  0  0  0
    4.7513    0.5980    2.3791 O   0  0  0  0  0  0  0  0  0  0  0  0
   -0.4258    0.7151    0.0594 C   0  0  0  0  0  0  0  0  0  0  0  0
   -0.3456    0.7805   -1.3798 O   0  0  0  0  0  0  0  0  0  0  0  0
   -1.4770    0.6609   -2.1214 C   0  0  0  0  0  0  0  0  0  0  0  0
   -1.5053    0.9533   -3.3090 O   0  0  0  0  0  0  0  0  0  0  0  0
   -2.6773    0.1217   -1.4271 C   0  0  0  0  0  0  0  0  0  0  0  0
   -2.5635   -0.4618   -0.1575 C   0  0  0  0  0  0  0  0  0  0  0  0
   -1.2130   -0.5207    0.4932 C   0  0  0  0  0  0  0  0  0  0  0  0
   -3.6945   -1.0120    0.4560 C   0  0  0  0  0  0  0  0  0  0  0  0
   -4.9326   -0.9589   -0.1860 C   0  0  0  0  0  0  0  0  0  0  0  0
   -5.0466   -0.3696   -1.4452 C   0  0  0  0  0  0  0  0  0  0  0  0
   -3.9198    0.1661   -2.0696 C   0  0  0  0  0  0  0  0  0  0  0  0
    3.6241   -1.8309   -1.4061 H   0  0  0  0  0  0  0  0  0  0  0  0
    5.2980   -1.3386   -1.6889 H   0  0  0  0  0  0  0  0  0  0  0  0
    4.0072   -0.1863   -2.0517 H   0  0  0  0  0  0  0  0  0  0  0  0
    1.8613   -0.3470   -1.0144 H   0  0  0  0  0  0  0  0  0  0  0  0
    0.3903    1.7233    2.4676 H   0  0  0  0  0  0  0  0  0  0  0  0
    2.6499    1.6506    3.4686 H   0  0  0  0  0  0  0  0  0  0  0  0
    5.3270    0.1510    1.7282 H   0  0  0  0  0  0  0  0  0  0  0  0
   -0.9242    1.6383    0.3869 H   0  0  0  0  0  0  0  0  0  0  0  0
   -0.7158   -1.4433    0.1681 H   0  0  0  0  0  0  0  0  0  0  0  0
   -1.3092   -0.5498    1.5850 H   0  0  0  0  0  0  0  0  0  0  0  0
   -3.6208   -1.4841    1.4336 H   0  0  0  0  0  0  0  0  0  0  0  0
   -5.8116   -1.3837    0.2939 H   0  0  0  0  0  0  0  0  0  0  0  0
   -6.0118   -0.3355   -1.9452 H   0  0  0  0  0  0  0  0  0  0  0  0
   -4.0115    0.6107   -3.0589 H   0  0  0  0  0  0  0  0  0  0  0  0
  1  2  1  0
  2  3  1  0
  3  4  2  0
  4  5  1  0
  5  6  2  0
  6  7  1  0
  7  8  2  0
  8  9  1  0
  5 10  1  0
 10 11  1  0
 11 12  1  0
 12 13  2  0
 12 14  1  0
 14 15  2  0
 15 16  1  0
 15 17  1  0
 17 18  2  0
 18 19  1  0
 19 20  2  0
  8  3  1  0
 16 10  1  0
 20 14  1  0
  1 21  1  0
  1 22  1  0
  1 23  1  0
  4 24  1  0
  6 25  1  0
  7 26  1  0
  9 27  1  0
 10 28  1  0
 16 29  1  0
 16 30  1  0
 17 31  1  0
 18 32  1  0
 19 33  1  0
 20 34  1  0
M  END
