
     RDKit          3D

 30 32  0  0  0  0  0  0  0  0999 V2000
   -4.5696   -0.3918   -2.1102 O   0  0  0  0  0  0  0  0  0  0  0  0
   -3.8625   -0.0834   -0.9857 C   0  0  0  0  0  0  0  0  0  0  0  0
   -4.4898    0.0702    0.2453 C   0  0  0  0  0  0  0  0  0  0  0  0
   -3.7231    0.3813    1.3674 C   0  0  0  0  0  0  0  0  0  0  0  0
   -2.3393    0.5367    1.2519 C   0  0  0  0  0  0  0  0  0  0  0  0
   -1.7030    0.3892    0.0091 C   0  0  0  0  0  0  0  0  0  0  0  0
   -2.4853    0.0706   -1.1118 C   0  0  0  0  0  0  0  0  0  0  0  0
   -0.2000    0.5245   -0.1389 C   0  0  0  0  0  0  0  0  0  0  0  0
    0.2951    1.4949    0.8075 O   0  0  0  0  0  0  0  0  0  0  0  0
    1.6343    1.6710    0.9472 C   0  0  0  0  0  0  0  0  0  0  0  0
    2.1028    2.6391    1.5307 O   0  0  0  0  0  0  0  0  0  0  0  0
    2.5108    0.6086    0.3840 C   0  0  0  0  0  0  0  0  0  0  0  0
    1.9681   -0.6124   -0.0400 C   0  0  0  0  0  0  0  0  0  0  0  0
    0.4871   -0.8238    0.0726 C   0  0  0  0  0  0  0  0  0  0  0  0
    2.8153   -1.6189   -0.5173 C   0  0  0  0  0  0  0  0  0  0  0  0
    4.1914   -1.3971   -0.5901 C   0  0  0  0  0  0  0  0  0  0  0  0
    4.7296   -0.1784   -0.1768 C   0  0  0  0  0  0  0  0  0  0  0  0
    3.8922    0.8232    0.3153 C   0  0  0  0  0  0  0  0  0  0  0  0
   -5.5123   -0.4337   -1.8793 H   0  0  0  0  0  0  0  0  0  0  0  0
   -5.5634   -0.0471    0.3511 H   0  0  0  0  0  0  0  0  0  0  0  0
   -4.2010    0.5062    2.3359 H   0  0  0  0  0  0  0  0  0  0  0  0
   -1.7602    0.7819    2.1409 H   0  0  0  0  0  0  0  0  0  0  0  0
   -2.0290   -0.0574   -2.0904 H   0  0  0  0  0  0  0  0  0  0  0  0
    0.0152    0.9260   -1.1391 H   0  0  0  0  0  0  0  0  0  0  0  0
    0.2737   -1.2269    1.0707 H   0  0  0  0  0  0  0  0  0  0  0  0
    0.1412   -1.5509   -0.6716 H   0  0  0  0  0  0  0  0  0  0  0  0
    2.4121   -2.5782   -0.8347 H   0  0  0  0  0  0  0  0  0  0  0  0
    4.8479   -2.1791   -0.9652 H   0  0  0  0  0  0  0  0  0  0  0  0
    5.8028   -0.0110   -0.2293 H   0  0  0  0  0  0  0  0  0  0  0  0
    4.3189    1.7666    0.6508 H   0  0  0  0  0  0  0  0  0  0  0  0
  1  2  1  0
  2  3  2  0
  3  4  1  0
  4  5  2  0
  5  6  1  0
  6  7  2  0
  6  8  1  0
  8  9  1  0
  9 10  1  0
 10 11  2  0
 10 12  1  0
 12 13  2  0
 13 14  1  0
 13 15  1  0
 15 16  2  0
 16 17  1  0
 17 18  2  0
  7  2  1  0
 14  8  1  0
 18 12  1  0
  1 19  1  0
  3 20  1  0
  4 21  1  0
  5 22  1  0
  7 23  1  0
  8 24  1  0
 14 25  1  0
 14 26  1  0
 15 27  1  0
 16 28  1  0
 17 29  1  0
 18 30  1  0
M  END
