
     RDKit          3D

 33 35  0  0  0  0  0  0  0  0999 V2000
    5.9526    0.8219    0.0554 C   0  0  0  0  0  0  0  0  0  0  0  0
    5.1802   -0.3252   -0.2761 O   0  0  0  0  0  0  0  0  0  0  0  0
    3.8366   -0.2557   -0.0315 C   0  0  0  0  0  0  0  0  0  0  0  0
    3.1277   -1.4207   -0.3296 C   0  0  0  0  0  0  0  0  0  0  0  0
    1.7467   -1.4889   -0.1276 C   0  0  0  0  0  0  0  0  0  0  0  0
    1.0473   -0.3861    0.3813 C   0  0  0  0  0  0  0  0  0  0  0  0
    1.7647    0.7837    0.6717 C   0  0  0  0  0  0  0  0  0  0  0  0
    3.1486    0.8480    0.4699 C   0  0  0  0  0  0  0  0  0  0  0  0
   -0.4561   -0.4635    0.5656 C   0  0  0  0  0  0  0  0  0  0  0  0
   -0.8439    0.3270    1.7087 O   0  0  0  0  0  0  0  0  0  0  0  0
   -2.1619    0.5161    1.9755 C   0  0  0  0  0  0  0  0  0  0  0  0
   -2.5491    0.9484    3.0527 O   0  0  0  0  0  0  0  0  0  0  0  0
   -3.1178    0.2024    0.8790 C   0  0  0  0  0  0  0  0  0  0  0  0
   -2.6558   -0.0341   -0.4233 C   0  0  0  0  0  0  0  0  0  0  0  0
   -1.1803    0.0226   -0.6889 C   0  0  0  0  0  0  0  0  0  0  0  0
   -3.5743   -0.2746   -1.4515 C   0  0  0  0  0  0  0  0  0  0  0  0
   -4.9420   -0.3002   -1.1743 C   0  0  0  0  0  0  0  0  0  0  0  0
   -5.4002   -0.0743    0.1236 C   0  0  0  0  0  0  0  0  0  0  0  0
   -4.4907    0.1824    1.1500 C   0  0  0  0  0  0  0  0  0  0  0  0
    5.8908    1.0447    1.1258 H   0  0  0  0  0  0  0  0  0  0  0  0
    5.6535    1.6860   -0.5470 H   0  0  0  0  0  0  0  0  0  0  0  0
    6.9982    0.5996   -0.1783 H   0  0  0  0  0  0  0  0  0  0  0  0
    3.6581   -2.2855   -0.7213 H   0  0  0  0  0  0  0  0  0  0  0  0
    1.2263   -2.4129   -0.3698 H   0  0  0  0  0  0  0  0  0  0  0  0
    1.2507    1.6586    1.0669 H   0  0  0  0  0  0  0  0  0  0  0  0
    3.6550    1.7752    0.7165 H   0  0  0  0  0  0  0  0  0  0  0  0
   -0.7245   -1.5034    0.7994 H   0  0  0  0  0  0  0  0  0  0  0  0
   -0.9148    1.0607   -0.9252 H   0  0  0  0  0  0  0  0  0  0  0  0
   -0.9163   -0.6031   -1.5497 H   0  0  0  0  0  0  0  0  0  0  0  0
   -3.2336   -0.4427   -2.4710 H   0  0  0  0  0  0  0  0  0  0  0  0
   -5.6543   -0.4909   -1.9740 H   0  0  0  0  0  0  0  0  0  0  0  0
   -6.4669   -0.0888    0.3350 H   0  0  0  0  0  0  0  0  0  0  0  0
   -4.8546    0.3734    2.1580 H   0  0  0  0  0  0  0  0  0  0  0  0
  1  2  1  0
  2  3  1  0
  3  4  2  0
  4  5  1  0
  5  6  2  0
  6  7  1  0
  7  8  2  0
  6  9  1  0
  9 10  1  0
 10 11  1  0
 11 12  2  0
 11 13  1  0
 13 14  2  0
 14 15  1  0
 14 16  1  0
 16 17  2  0
 17 18  1  0
 18 19  2  0
  8  3  1  0
 15  9  1  0
 19 13  1  0
  1 20  1  0
  1 21  1  0
  1 22  1  0
  4 23  1  0
  5 24  1  0
  7 25  1  0
  8 26  1  0
  9 27  1  0
 15 28  1  0
 15 29  1  0
 16 30  1  0
 17 31  1  0
 18 32  1  0
 19 33  1  0
M  END
