
     RDKit          3D

 31 33  0  0  0  0  0  0  0  0999 V2000
   -2.0243   -0.9758   -3.1032 O   0  0  0  0  0  0  0  0  0  0  0  0
   -1.6628   -0.6323   -1.9859 C   0  0  0  0  0  0  0  0  0  0  0  0
   -0.3542   -0.6314   -1.6233 O   0  0  0  0  0  0  0  0  0  0  0  0
   -0.0013   -0.5180   -0.2286 C   0  0  0  0  0  0  0  0  0  0  0  0
   -0.7241    0.6681    0.4081 C   0  0  0  0  0  0  0  0  0  0  0  0
   -2.1978    0.4797    0.1995 C   0  0  0  0  0  0  0  0  0  0  0  0
   -2.6391   -0.1602   -0.9671 C   0  0  0  0  0  0  0  0  0  0  0  0
   -4.0091   -0.3258   -1.2005 C   0  0  0  0  0  0  0  0  0  0  0  0
   -4.9364    0.1451   -0.2705 C   0  0  0  0  0  0  0  0  0  0  0  0
   -4.4985    0.7902    0.8861 C   0  0  0  0  0  0  0  0  0  0  0  0
   -3.1336    0.9641    1.1204 C   0  0  0  0  0  0  0  0  0  0  0  0
    1.5025   -0.3657   -0.0940 C   0  0  0  0  0  0  0  0  0  0  0  0
    2.2745    0.2671   -1.0870 C   0  0  0  0  0  0  0  0  0  0  0  0
    3.6572    0.4195   -0.9371 C   0  0  0  0  0  0  0  0  0  0  0  0
    4.2698   -0.0556    0.2145 C   0  0  0  0  0  0  0  0  0  0  0  0
    3.5152   -0.6746    1.2062 C   0  0  0  0  0  0  0  0  0  0  0  0
    2.1435   -0.8338    1.0647 C   0  0  0  0  0  0  0  0  0  0  0  0
    4.1233   -1.1341    2.3393 O   0  0  0  0  0  0  0  0  0  0  0  0
    5.6162    0.0635    0.4203 O   0  0  0  0  0  0  0  0  0  0  0  0
   -0.2965   -1.4643    0.2464 H   0  0  0  0  0  0  0  0  0  0  0  0
   -0.4290    1.6135   -0.0645 H   0  0  0  0  0  0  0  0  0  0  0  0
   -0.4888    0.7316    1.4772 H   0  0  0  0  0  0  0  0  0  0  0  0
   -4.3566   -0.8150   -2.1087 H   0  0  0  0  0  0  0  0  0  0  0  0
   -6.0008    0.0164   -0.4527 H   0  0  0  0  0  0  0  0  0  0  0  0
   -5.2243    1.1636    1.6051 H   0  0  0  0  0  0  0  0  0  0  0  0
   -2.8086    1.4775    2.0229 H   0  0  0  0  0  0  0  0  0  0  0  0
    1.7998    0.6410   -1.9933 H   0  0  0  0  0  0  0  0  0  0  0  0
    4.2258    0.9052   -1.7235 H   0  0  0  0  0  0  0  0  0  0  0  0
    1.5841   -1.3231    1.8577 H   0  0  0  0  0  0  0  0  0  0  0  0
    5.0698   -0.9237    2.2094 H   0  0  0  0  0  0  0  0  0  0  0  0
    6.0038    0.4871   -0.3651 H   0  0  0  0  0  0  0  0  0  0  0  0
  1  2  2  0
  2  3  1  0
  3  4  1  0
  4  5  1  0
  5  6  1  0
  6  7  2  0
  7  8  1  0
  8  9  2  0
  9 10  1  0
 10 11  2  0
  4 12  1  0
 12 13  2  0
 13 14  1  0
 14 15  2  0
 15 16  1  0
 16 17  2  0
 16 18  1  0
 15 19  1  0
  7  2  1  0
 17 12  1  0
 11  6  1  0
  4 20  1  0
  5 21  1  0
  5 22  1  0
  8 23  1  0
  9 24  1  0
 10 25  1  0
 11 26  1  0
 13 27  1  0
 14 28  1  0
 17 29  1  0
 18 30  1  0
 19 31  1  0
M  END
