
     RDKit          3D

 30 31  0  0  0  0  0  0  0  0999 V2000
    4.5906    1.5649    0.1342 C   0  0  0  0  0  0  0  0  0  0  0  0
    3.7008    1.4323    1.2366 O   0  0  0  0  0  0  0  0  0  0  0  0
    2.5645    0.6960    1.0196 C   0  0  0  0  0  0  0  0  0  0  0  0
    2.2098    0.0566   -0.1664 C   0  0  0  0  0  0  0  0  0  0  0  0
    1.0105   -0.6640   -0.2426 C   0  0  0  0  0  0  0  0  0  0  0  0
    0.1489   -0.7536    0.8626 C   0  0  0  0  0  0  0  0  0  0  0  0
    0.5101   -0.1121    2.0531 C   0  0  0  0  0  0  0  0  0  0  0  0
    1.7029    0.5996    2.1179 C   0  0  0  0  0  0  0  0  0  0  0  0
    2.0226    1.2157    3.2984 O   0  0  0  0  0  0  0  0  0  0  0  0
   -1.1436   -1.5334    0.7737 C   0  0  0  0  0  0  0  0  0  0  0  0
   -2.1488   -0.9544   -0.1964 C   0  0  0  0  0  0  0  0  0  0  0  0
   -2.5186   -1.6635   -1.3483 C   0  0  0  0  0  0  0  0  0  0  0  0
   -3.4498   -1.1291   -2.2407 C   0  0  0  0  0  0  0  0  0  0  0  0
   -4.0212    0.1172   -1.9912 C   0  0  0  0  0  0  0  0  0  0  0  0
   -3.6630    0.8306   -0.8492 C   0  0  0  0  0  0  0  0  0  0  0  0
   -2.7328    0.2980    0.0447 C   0  0  0  0  0  0  0  0  0  0  0  0
    5.4358    2.1789    0.4597 H   0  0  0  0  0  0  0  0  0  0  0  0
    4.1081    2.0798   -0.7032 H   0  0  0  0  0  0  0  0  0  0  0  0
    4.9856    0.5910   -0.1733 H   0  0  0  0  0  0  0  0  0  0  0  0
    2.8354    0.0969   -1.0513 H   0  0  0  0  0  0  0  0  0  0  0  0
    0.7459   -1.1523   -1.1788 H   0  0  0  0  0  0  0  0  0  0  0  0
   -0.1285   -0.1584    2.9308 H   0  0  0  0  0  0  0  0  0  0  0  0
    2.8804    1.6507    3.1268 H   0  0  0  0  0  0  0  0  0  0  0  0
   -1.6203   -1.5999    1.7606 H   0  0  0  0  0  0  0  0  0  0  0  0
   -0.8996   -2.5685    0.5005 H   0  0  0  0  0  0  0  0  0  0  0  0
   -2.0836   -2.6377   -1.5588 H   0  0  0  0  0  0  0  0  0  0  0  0
   -3.7300   -1.6858   -3.1310 H   0  0  0  0  0  0  0  0  0  0  0  0
   -4.7455    0.5329   -2.6865 H   0  0  0  0  0  0  0  0  0  0  0  0
   -4.1064    1.8034   -0.6537 H   0  0  0  0  0  0  0  0  0  0  0  0
   -2.4602    0.8682    0.9305 H   0  0  0  0  0  0  0  0  0  0  0  0
  1  2  1  0
  2  3  1  0
  3  4  2  0
  4  5  1  0
  5  6  2  0
  6  7  1  0
  7  8  2  0
  8  9  1  0
  6 10  1  0
 10 11  1  0
 11 12  2  0
 12 13  1  0
 13 14  2  0
 14 15  1  0
 15 16  2  0
  8  3  1  0
 16 11  1  0
  1 17  1  0
  1 18  1  0
  1 19  1  0
  4 20  1  0
  5 21  1  0
  7 22  1  0
  9 23  1  0
 10 24  1  0
 10 25  1  0
 12 26  1  0
 13 27  1  0
 14 28  1  0
 15 29  1  0
 16 30  1  0
M  END
