
     RDKit          3D

 36 37  0  0  0  0  0  0  0  0999 V2000
    4.6895    2.2900   -0.3041 C   0  0  0  0  0  0  0  0  0  0  0  0
    4.5177    0.9058   -0.0224 O   0  0  0  0  0  0  0  0  0  0  0  0
    3.2819    0.3759   -0.2912 C   0  0  0  0  0  0  0  0  0  0  0  0
    2.1844    1.0622   -0.8065 C   0  0  0  0  0  0  0  0  0  0  0  0
    0.9774    0.3867   -1.0304 C   0  0  0  0  0  0  0  0  0  0  0  0
    0.8482   -0.9794   -0.7385 C   0  0  0  0  0  0  0  0  0  0  0  0
    1.9554   -1.6674   -0.2297 C   0  0  0  0  0  0  0  0  0  0  0  0
    3.1487   -0.9881   -0.0104 C   0  0  0  0  0  0  0  0  0  0  0  0
    4.2091   -1.6930    0.4934 O   0  0  0  0  0  0  0  0  0  0  0  0
   -0.4587   -1.6928   -0.9853 C   0  0  0  0  0  0  0  0  0  0  0  0
   -1.1204   -2.2616    0.2773 C   0  0  0  0  0  0  0  0  0  0  0  0
   -1.5098   -1.2146    1.3300 C   0  0  0  0  0  0  0  0  0  0  0  0
   -2.5211   -0.1982    0.8572 C   0  0  0  0  0  0  0  0  0  0  0  0
   -3.8099   -0.5918    0.4716 C   0  0  0  0  0  0  0  0  0  0  0  0
   -4.7397    0.3540    0.0361 C   0  0  0  0  0  0  0  0  0  0  0  0
   -4.3936    1.7028   -0.0125 C   0  0  0  0  0  0  0  0  0  0  0  0
   -3.1191    2.1074    0.3782 C   0  0  0  0  0  0  0  0  0  0  0  0
   -2.1886    1.1626    0.8138 C   0  0  0  0  0  0  0  0  0  0  0  0
    4.0181    2.9032    0.3060 H   0  0  0  0  0  0  0  0  0  0  0  0
    4.5546    2.4953   -1.3712 H   0  0  0  0  0  0  0  0  0  0  0  0
    5.7170    2.5589   -0.0409 H   0  0  0  0  0  0  0  0  0  0  0  0
    2.2279    2.1186   -1.0475 H   0  0  0  0  0  0  0  0  0  0  0  0
    0.1312    0.9394   -1.4354 H   0  0  0  0  0  0  0  0  0  0  0  0
    1.8995   -2.7287   -0.0044 H   0  0  0  0  0  0  0  0  0  0  0  0
    4.9310   -1.0387    0.5643 H   0  0  0  0  0  0  0  0  0  0  0  0
   -0.2636   -2.5168   -1.6841 H   0  0  0  0  0  0  0  0  0  0  0  0
   -1.1604   -1.0293   -1.5052 H   0  0  0  0  0  0  0  0  0  0  0  0
   -0.4488   -2.9890    0.7503 H   0  0  0  0  0  0  0  0  0  0  0  0
   -2.0099   -2.8268   -0.0276 H   0  0  0  0  0  0  0  0  0  0  0  0
   -0.6093   -0.7094    1.7001 H   0  0  0  0  0  0  0  0  0  0  0  0
   -1.9352   -1.7299    2.2011 H   0  0  0  0  0  0  0  0  0  0  0  0
   -4.1001   -1.6391    0.5117 H   0  0  0  0  0  0  0  0  0  0  0  0
   -5.7359    0.0377   -0.2618 H   0  0  0  0  0  0  0  0  0  0  0  0
   -5.1188    2.4385   -0.3496 H   0  0  0  0  0  0  0  0  0  0  0  0
   -2.8498    3.1598    0.3476 H   0  0  0  0  0  0  0  0  0  0  0  0
   -1.1991    1.4956    1.1199 H   0  0  0  0  0  0  0  0  0  0  0  0
  1  2  1  0
  2  3  1  0
  3  4  2  0
  4  5  1  0
  5  6  2  0
  6  7  1  0
  7  8  2  0
  8  9  1  0
  6 10  1  0
 10 11  1  0
 11 12  1  0
 12 13  1  0
 13 14  2  0
 14 15  1  0
 15 16  2  0
 16 17  1  0
 17 18  2  0
  8  3  1  0
 18 13  1  0
  1 19  1  0
  1 20  1  0
  1 21  1  0
  4 22  1  0
  5 23  1  0
  7 24  1  0
  9 25  1  0
 10 26  1  0
 10 27  1  0
 11 28  1  0
 11 29  1  0
 12 30  1  0
 12 31  1  0
 14 32  1  0
 15 33  1  0
 16 34  1  0
 17 35  1  0
 18 36  1  0
M  END
