
     RDKit          3D

 39 40  0  0  0  0  0  0  0  0999 V2000
    5.5582    1.2430   -1.8791 C   0  0  0  0  0  0  0  0  0  0  0  0
    5.2443    0.0522   -1.1662 O   0  0  0  0  0  0  0  0  0  0  0  0
    4.0869    0.0673   -0.4307 C   0  0  0  0  0  0  0  0  0  0  0  0
    3.1936    1.1312   -0.3201 C   0  0  0  0  0  0  0  0  0  0  0  0
    2.0448    1.0025    0.4716 C   0  0  0  0  0  0  0  0  0  0  0  0
    1.7770   -0.1872    1.1649 C   0  0  0  0  0  0  0  0  0  0  0  0
    2.6714   -1.2562    1.0472 C   0  0  0  0  0  0  0  0  0  0  0  0
    3.8084   -1.1180    0.2591 C   0  0  0  0  0  0  0  0  0  0  0  0
    4.6641   -2.1834    0.1679 O   0  0  0  0  0  0  0  0  0  0  0  0
    0.5280   -0.3228    1.9992 C   0  0  0  0  0  0  0  0  0  0  0  0
   -0.6724   -0.7521    1.1524 C   0  0  0  0  0  0  0  0  0  0  0  0
   -1.9313   -0.9007    2.0125 C   0  0  0  0  0  0  0  0  0  0  0  0
   -3.1452   -1.3925    1.2165 C   0  0  0  0  0  0  0  0  0  0  0  0
   -3.6630   -0.3864    0.2184 C   0  0  0  0  0  0  0  0  0  0  0  0
   -4.3757    0.7409    0.6495 C   0  0  0  0  0  0  0  0  0  0  0  0
   -4.8478    1.6760   -0.2730 C   0  0  0  0  0  0  0  0  0  0  0  0
   -4.6117    1.4941   -1.6342 C   0  0  0  0  0  0  0  0  0  0  0  0
   -3.9039    0.3773   -2.0740 C   0  0  0  0  0  0  0  0  0  0  0  0
   -3.4317   -0.5592   -1.1528 C   0  0  0  0  0  0  0  0  0  0  0  0
    6.5010    1.0758   -2.4088 H   0  0  0  0  0  0  0  0  0  0  0  0
    5.7054    2.0854   -1.1952 H   0  0  0  0  0  0  0  0  0  0  0  0
    4.7914    1.4686   -2.6275 H   0  0  0  0  0  0  0  0  0  0  0  0
    3.3537    2.0725   -0.8343 H   0  0  0  0  0  0  0  0  0  0  0  0
    1.3536    1.8404    0.5423 H   0  0  0  0  0  0  0  0  0  0  0  0
    2.4905   -2.1955    1.5622 H   0  0  0  0  0  0  0  0  0  0  0  0
    5.3795   -1.8768   -0.4223 H   0  0  0  0  0  0  0  0  0  0  0  0
    0.3194    0.6336    2.4955 H   0  0  0  0  0  0  0  0  0  0  0  0
    0.7021   -1.0486    2.8037 H   0  0  0  0  0  0  0  0  0  0  0  0
   -0.8433   -0.0121    0.3615 H   0  0  0  0  0  0  0  0  0  0  0  0
   -0.4544   -1.7051    0.6538 H   0  0  0  0  0  0  0  0  0  0  0  0
   -2.1583    0.0541    2.5024 H   0  0  0  0  0  0  0  0  0  0  0  0
   -1.7304   -1.6257    2.8111 H   0  0  0  0  0  0  0  0  0  0  0  0
   -2.9017   -2.3357    0.7114 H   0  0  0  0  0  0  0  0  0  0  0  0
   -3.9583   -1.6315    1.9143 H   0  0  0  0  0  0  0  0  0  0  0  0
   -4.5684    0.8955    1.7086 H   0  0  0  0  0  0  0  0  0  0  0  0
   -5.4005    2.5461    0.0711 H   0  0  0  0  0  0  0  0  0  0  0  0
   -4.9796    2.2221   -2.3522 H   0  0  0  0  0  0  0  0  0  0  0  0
   -3.7184    0.2345   -3.1353 H   0  0  0  0  0  0  0  0  0  0  0  0
   -2.8774   -1.4233   -1.5123 H   0  0  0  0  0  0  0  0  0  0  0  0
  1  2  1  0
  2  3  1  0
  3  4  2  0
  4  5  1  0
  5  6  2  0
  6  7  1  0
  7  8  2  0
  8  9  1  0
  6 10  1  0
 10 11  1  0
 11 12  1  0
 12 13  1  0
 13 14  1  0
 14 15  2  0
 15 16  1  0
 16 17  2  0
 17 18  1  0
 18 19  2  0
  8  3  1  0
 19 14  1  0
  1 20  1  0
  1 21  1  0
  1 22  1  0
  4 23  1  0
  5 24  1  0
  7 25  1  0
  9 26  1  0
 10 27  1  0
 10 28  1  0
 11 29  1  0
 11 30  1  0
 12 31  1  0
 12 32  1  0
 13 33  1  0
 13 34  1  0
 15 35  1  0
 16 36  1  0
 17 37  1  0
 18 38  1  0
 19 39  1  0
M  END
