
     RDKit          3D

 31 32  0  0  0  0  0  0  0  0999 V2000
   -5.6415    0.9565    0.6050 C   0  0  0  0  0  0  0  0  0  0  0  0
   -4.9800   -0.2297    0.1801 O   0  0  0  0  0  0  0  0  0  0  0  0
   -3.6190   -0.1530    0.0356 C   0  0  0  0  0  0  0  0  0  0  0  0
   -2.8283    0.9731    0.2515 C   0  0  0  0  0  0  0  0  0  0  0  0
   -1.4403    0.9023    0.0623 C   0  0  0  0  0  0  0  0  0  0  0  0
   -0.8237   -0.2940   -0.3338 C   0  0  0  0  0  0  0  0  0  0  0  0
   -1.6231   -1.4174   -0.5659 C   0  0  0  0  0  0  0  0  0  0  0  0
   -2.9991   -1.3378   -0.3753 C   0  0  0  0  0  0  0  0  0  0  0  0
   -3.7481   -2.4615   -0.6037 O   0  0  0  0  0  0  0  0  0  0  0  0
    0.6237   -0.3919   -0.5705 C   0  0  0  0  0  0  0  0  0  0  0  0
    1.5502    0.2269    0.1795 C   0  0  0  0  0  0  0  0  0  0  0  0
    2.9968    0.1231   -0.0601 C   0  0  0  0  0  0  0  0  0  0  0  0
    3.6091   -1.0820   -0.4289 C   0  0  0  0  0  0  0  0  0  0  0  0
    4.9920   -1.1476   -0.6188 C   0  0  0  0  0  0  0  0  0  0  0  0
    5.7774   -0.0121   -0.4320 C   0  0  0  0  0  0  0  0  0  0  0  0
    5.1821    1.1880   -0.0498 C   0  0  0  0  0  0  0  0  0  0  0  0
    3.7995    1.2536    0.1408 C   0  0  0  0  0  0  0  0  0  0  0  0
   -6.7103    0.7340    0.6792 H   0  0  0  0  0  0  0  0  0  0  0  0
   -5.5189    1.7605   -0.1282 H   0  0  0  0  0  0  0  0  0  0  0  0
   -5.2963    1.2676    1.5965 H   0  0  0  0  0  0  0  0  0  0  0  0
   -3.2516    1.9227    0.5601 H   0  0  0  0  0  0  0  0  0  0  0  0
   -0.8473    1.8010    0.2174 H   0  0  0  0  0  0  0  0  0  0  0  0
   -1.1869   -2.3595   -0.8859 H   0  0  0  0  0  0  0  0  0  0  0  0
   -4.6679   -2.1922   -0.4140 H   0  0  0  0  0  0  0  0  0  0  0  0
    0.9162   -1.0210   -1.4082 H   0  0  0  0  0  0  0  0  0  0  0  0
    1.2620    0.8544    1.0191 H   0  0  0  0  0  0  0  0  0  0  0  0
    3.0189   -1.9855   -0.5609 H   0  0  0  0  0  0  0  0  0  0  0  0
    5.4549   -2.0878   -0.9071 H   0  0  0  0  0  0  0  0  0  0  0  0
    6.8529   -0.0641   -0.5791 H   0  0  0  0  0  0  0  0  0  0  0  0
    5.7931    2.0740    0.1015 H   0  0  0  0  0  0  0  0  0  0  0  0
    3.3533    2.1994    0.4393 H   0  0  0  0  0  0  0  0  0  0  0  0
  1  2  1  0
  2  3  1  0
  3  4  2  0
  4  5  1  0
  5  6  2  0
  6  7  1  0
  7  8  2  0
  8  9  1  0
  6 10  1  0
 10 11  2  3
 11 12  1  0
 12 13  2  0
 13 14  1  0
 14 15  2  0
 15 16  1  0
 16 17  2  0
  8  3  1  0
 17 12  1  0
  1 18  1  0
  1 19  1  0
  1 20  1  0
  4 21  1  0
  5 22  1  0
  7 23  1  0
  9 24  1  0
 10 25  1  0
 11 26  1  0
 13 27  1  0
 14 28  1  0
 15 29  1  0
 16 30  1  0
 17 31  1  0
M  END
