
     RDKit          3D

 18 17  0  0  0  0  0  0  0  0999 V2000
    2.4270   -0.3170   -1.2895 O   0  0  0  0  0  0  0  0  0  0  0  0
    1.5628   -0.2031   -0.1543 C   0  0  0  0  0  0  0  0  0  0  0  0
    0.1794    0.2186   -0.6495 C   0  0  0  0  0  0  0  0  0  0  0  0
   -0.8081    0.5565    0.4768 C   0  0  0  0  0  0  0  0  0  0  0  0
   -1.0864   -0.6012    1.4338 C   0  0  0  0  0  0  0  0  0  0  0  0
   -1.5632   -1.7336    0.7110 O   0  0  0  0  0  0  0  0  0  0  0  0
   -2.0581    0.9331   -0.1348 O   0  0  0  0  0  0  0  0  0  0  0  0
    0.3233    1.4026   -1.4648 O   0  0  0  0  0  0  0  0  0  0  0  0
    3.2787   -0.6580   -0.9621 H   0  0  0  0  0  0  0  0  0  0  0  0
    1.9909    0.5561    0.5078 H   0  0  0  0  0  0  0  0  0  0  0  0
    1.5313   -1.1673    0.3604 H   0  0  0  0  0  0  0  0  0  0  0  0
   -0.2338   -0.5444   -1.3195 H   0  0  0  0  0  0  0  0  0  0  0  0
   -0.4605    1.4303    1.0397 H   0  0  0  0  0  0  0  0  0  0  0  0
   -0.1904   -0.8952    1.9870 H   0  0  0  0  0  0  0  0  0  0  0  0
   -1.8618   -0.3251    2.1562 H   0  0  0  0  0  0  0  0  0  0  0  0
   -2.3260   -1.4007    0.1959 H   0  0  0  0  0  0  0  0  0  0  0  0
   -1.8008    1.5429   -0.8582 H   0  0  0  0  0  0  0  0  0  0  0  0
    1.0958    1.2055   -2.0359 H   0  0  0  0  0  0  0  0  0  0  0  0
  1  2  1  0
  2  3  1  0
  3  4  1  0
  4  5  1  0
  5  6  1  0
  4  7  1  0
  3  8  1  0
  1  9  1  0
  2 10  1  0
  2 11  1  0
  3 12  1  0
  4 13  1  0
  5 14  1  0
  5 15  1  0
  6 16  1  0
  7 17  1  0
  8 18  1  0
M  END
