
     RDKit          3D

 36 37  0  0  0  0  0  0  0  0999 V2000
    4.6775   -1.8406    1.0763 C   0  0  0  0  0  0  0  0  0  0  0  0
    4.3866   -0.5009    0.6948 O   0  0  0  0  0  0  0  0  0  0  0  0
    3.1659   -0.2841    0.1090 C   0  0  0  0  0  0  0  0  0  0  0  0
    2.1882   -1.2450   -0.1403 C   0  0  0  0  0  0  0  0  0  0  0  0
    0.9810   -0.8758   -0.7476 C   0  0  0  0  0  0  0  0  0  0  0  0
    0.7360    0.4557   -1.1141 C   0  0  0  0  0  0  0  0  0  0  0  0
    1.7176    1.4198   -0.8599 C   0  0  0  0  0  0  0  0  0  0  0  0
    2.9122    1.0423   -0.2571 C   0  0  0  0  0  0  0  0  0  0  0  0
    3.8503    2.0118   -0.0222 O   0  0  0  0  0  0  0  0  0  0  0  0
   -0.5802    0.8524   -1.7447 C   0  0  0  0  0  0  0  0  0  0  0  0
   -1.6104    1.3670   -0.7192 C   0  0  0  0  0  0  0  0  0  0  0  0
   -2.1593    0.2654    0.1755 C   0  0  0  0  0  0  0  0  0  0  0  0
   -2.9815   -0.7529   -0.3333 C   0  0  0  0  0  0  0  0  0  0  0  0
   -3.4609   -1.7631    0.5023 C   0  0  0  0  0  0  0  0  0  0  0  0
   -3.1231   -1.7711    1.8536 C   0  0  0  0  0  0  0  0  0  0  0  0
   -2.3050   -0.7696    2.3712 C   0  0  0  0  0  0  0  0  0  0  0  0
   -1.8251    0.2425    1.5383 C   0  0  0  0  0  0  0  0  0  0  0  0
   -2.7234    2.0876   -1.4569 C   0  0  0  0  0  0  0  0  0  0  0  0
   -3.1848    1.8000   -2.5507 O   0  0  0  0  0  0  0  0  0  0  0  0
   -3.2212    3.1348   -0.7663 O   0  0  0  0  0  0  0  0  0  0  0  0
    3.9723   -2.1969    1.8345 H   0  0  0  0  0  0  0  0  0  0  0  0
    5.6773   -1.8512    1.5209 H   0  0  0  0  0  0  0  0  0  0  0  0
    4.6932   -2.5046    0.2057 H   0  0  0  0  0  0  0  0  0  0  0  0
    2.3242   -2.2875    0.1260 H   0  0  0  0  0  0  0  0  0  0  0  0
    0.2240   -1.6386   -0.9235 H   0  0  0  0  0  0  0  0  0  0  0  0
    1.5625    2.4618   -1.1256 H   0  0  0  0  0  0  0  0  0  0  0  0
    4.5970    1.5389    0.3940 H   0  0  0  0  0  0  0  0  0  0  0  0
   -0.9794    0.0055   -2.3188 H   0  0  0  0  0  0  0  0  0  0  0  0
   -0.3764    1.6311   -2.4929 H   0  0  0  0  0  0  0  0  0  0  0  0
   -1.1152    2.1269   -0.0979 H   0  0  0  0  0  0  0  0  0  0  0  0
   -3.2577   -0.7693   -1.3864 H   0  0  0  0  0  0  0  0  0  0  0  0
   -4.0995   -2.5440    0.0973 H   0  0  0  0  0  0  0  0  0  0  0  0
   -3.4973   -2.5576    2.5035 H   0  0  0  0  0  0  0  0  0  0  0  0
   -2.0382   -0.7757    3.4248 H   0  0  0  0  0  0  0  0  0  0  0  0
   -1.1806    1.0110    1.9609 H   0  0  0  0  0  0  0  0  0  0  0  0
   -3.9464    3.4737   -1.3314 H   0  0  0  0  0  0  0  0  0  0  0  0
  1  2  1  0
  2  3  1  0
  3  4  2  0
  4  5  1  0
  5  6  2  0
  6  7  1  0
  7  8  2  0
  8  9  1  0
  6 10  1  0
 10 11  1  0
 11 12  1  0
 12 13  2  0
 13 14  1  0
 14 15  2  0
 15 16  1  0
 16 17  2  0
 11 18  1  0
 18 19  2  0
 18 20  1  0
  8  3  1  0
 17 12  1  0
  1 21  1  0
  1 22  1  0
  1 23  1  0
  4 24  1  0
  5 25  1  0
  7 26  1  0
  9 27  1  0
 10 28  1  0
 10 29  1  0
 11 30  1  0
 13 31  1  0
 14 32  1  0
 15 33  1  0
 16 34  1  0
 17 35  1  0
 20 36  1  0
M  END
