
     RDKit          3D

 36 37  0  0  0  0  0  0  0  0999 V2000
    3.9657   -0.2361   -3.1764 C   0  0  0  0  0  0  0  0  0  0  0  0
    3.8796    0.5963   -2.0256 O   0  0  0  0  0  0  0  0  0  0  0  0
    2.9157    0.2694   -1.1065 C   0  0  0  0  0  0  0  0  0  0  0  0
    2.0208   -0.7951   -1.1930 C   0  0  0  0  0  0  0  0  0  0  0  0
    1.0841   -1.0081   -0.1734 C   0  0  0  0  0  0  0  0  0  0  0  0
    1.0298   -0.1624    0.9443 C   0  0  0  0  0  0  0  0  0  0  0  0
    1.9266    0.9085    1.0270 C   0  0  0  0  0  0  0  0  0  0  0  0
    2.8531    1.1101    0.0103 C   0  0  0  0  0  0  0  0  0  0  0  0
    3.7159    2.1675    0.1237 O   0  0  0  0  0  0  0  0  0  0  0  0
    0.0000   -0.3827    2.0296 C   0  0  0  0  0  0  0  0  0  0  0  0
   -1.2774    0.4649    1.8390 C   0  0  0  0  0  0  0  0  0  0  0  0
   -2.1170   -0.0095    0.6608 C   0  0  0  0  0  0  0  0  0  0  0  0
   -2.2049    0.7856   -0.4924 C   0  0  0  0  0  0  0  0  0  0  0  0
   -2.9546    0.3664   -1.5930 C   0  0  0  0  0  0  0  0  0  0  0  0
   -3.6251   -0.8537   -1.5570 C   0  0  0  0  0  0  0  0  0  0  0  0
   -3.5436   -1.6567   -0.4219 C   0  0  0  0  0  0  0  0  0  0  0  0
   -2.7931   -1.2393    0.6794 C   0  0  0  0  0  0  0  0  0  0  0  0
   -2.1007    0.4853    3.1337 C   0  0  0  0  0  0  0  0  0  0  0  0
    3.0401   -0.1993   -3.7604 H   0  0  0  0  0  0  0  0  0  0  0  0
    4.2210   -1.2648   -2.9014 H   0  0  0  0  0  0  0  0  0  0  0  0
    4.7725    0.1495   -3.8073 H   0  0  0  0  0  0  0  0  0  0  0  0
    2.0157   -1.4763   -2.0368 H   0  0  0  0  0  0  0  0  0  0  0  0
    0.3830   -1.8360   -0.2646 H   0  0  0  0  0  0  0  0  0  0  0  0
    1.9093    1.5879    1.8744 H   0  0  0  0  0  0  0  0  0  0  0  0
    4.2683    2.1234   -0.6808 H   0  0  0  0  0  0  0  0  0  0  0  0
    0.4688   -0.1318    2.9909 H   0  0  0  0  0  0  0  0  0  0  0  0
   -0.2408   -1.4518    2.0950 H   0  0  0  0  0  0  0  0  0  0  0  0
   -0.9788    1.5060    1.6524 H   0  0  0  0  0  0  0  0  0  0  0  0
   -1.6797    1.7372   -0.5449 H   0  0  0  0  0  0  0  0  0  0  0  0
   -3.0120    0.9933   -2.4788 H   0  0  0  0  0  0  0  0  0  0  0  0
   -4.2092   -1.1789   -2.4135 H   0  0  0  0  0  0  0  0  0  0  0  0
   -4.0645   -2.6101   -0.3930 H   0  0  0  0  0  0  0  0  0  0  0  0
   -2.7395   -1.8875    1.5505 H   0  0  0  0  0  0  0  0  0  0  0  0
   -3.0211    1.0658    3.0050 H   0  0  0  0  0  0  0  0  0  0  0  0
   -1.5268    0.9460    3.9453 H   0  0  0  0  0  0  0  0  0  0  0  0
   -2.3811   -0.5222    3.4592 H   0  0  0  0  0  0  0  0  0  0  0  0
  1  2  1  0
  2  3  1  0
  3  4  2  0
  4  5  1  0
  5  6  2  0
  6  7  1  0
  7  8  2  0
  8  9  1  0
  6 10  1  0
 10 11  1  0
 11 12  1  0
 12 13  2  0
 13 14  1  0
 14 15  2  0
 15 16  1  0
 16 17  2  0
 11 18  1  0
  8  3  1  0
 17 12  1  0
  1 19  1  0
  1 20  1  0
  1 21  1  0
  4 22  1  0
  5 23  1  0
  7 24  1  0
  9 25  1  0
 10 26  1  0
 10 27  1  0
 11 28  1  0
 13 29  1  0
 14 30  1  0
 15 31  1  0
 16 32  1  0
 17 33  1  0
 18 34  1  0
 18 35  1  0
 18 36  1  0
M  END
