
     RDKit          3D

 37 38  0  0  0  0  0  0  0  0999 V2000
   -2.1411   -0.6722    2.4253 O   0  0  0  0  0  0  0  0  0  0  0  0
   -1.4601   -1.0106    1.2164 C   0  0  0  0  0  0  0  0  0  0  0  0
   -1.2810    0.2279    0.3157 C   0  0  0  0  0  0  0  0  0  0  0  0
   -2.6323    0.7874   -0.1260 C   0  0  0  0  0  0  0  0  0  0  0  0
   -3.0208    2.0711    0.2877 C   0  0  0  0  0  0  0  0  0  0  0  0
   -4.2551    2.5994   -0.0942 C   0  0  0  0  0  0  0  0  0  0  0  0
   -5.1169    1.8527   -0.8938 C   0  0  0  0  0  0  0  0  0  0  0  0
   -4.7455    0.5772   -1.3120 C   0  0  0  0  0  0  0  0  0  0  0  0
   -3.5117    0.0463   -0.9311 C   0  0  0  0  0  0  0  0  0  0  0  0
   -0.3986   -0.0711   -0.9170 C   0  0  0  0  0  0  0  0  0  0  0  0
    1.0463   -0.3594   -0.5822 C   0  0  0  0  0  0  0  0  0  0  0  0
    1.8913    0.6624   -0.1235 C   0  0  0  0  0  0  0  0  0  0  0  0
    3.2306    0.4013    0.1954 C   0  0  0  0  0  0  0  0  0  0  0  0
    3.7422   -0.8873    0.0565 C   0  0  0  0  0  0  0  0  0  0  0  0
    2.8947   -1.8992   -0.4067 C   0  0  0  0  0  0  0  0  0  0  0  0
    1.5642   -1.6512   -0.7259 C   0  0  0  0  0  0  0  0  0  0  0  0
    3.3657   -3.1762   -0.5566 O   0  0  0  0  0  0  0  0  0  0  0  0
    5.0254   -1.2854    0.3304 O   0  0  0  0  0  0  0  0  0  0  0  0
    5.9092   -0.2847    0.8224 C   0  0  0  0  0  0  0  0  0  0  0  0
   -3.0151   -0.3228    2.1735 H   0  0  0  0  0  0  0  0  0  0  0  0
   -0.4899   -1.4206    1.5118 H   0  0  0  0  0  0  0  0  0  0  0  0
   -2.0197   -1.8101    0.7195 H   0  0  0  0  0  0  0  0  0  0  0  0
   -0.7897    0.9999    0.9239 H   0  0  0  0  0  0  0  0  0  0  0  0
   -2.3651    2.6708    0.9161 H   0  0  0  0  0  0  0  0  0  0  0  0
   -4.5440    3.5948    0.2334 H   0  0  0  0  0  0  0  0  0  0  0  0
   -6.0775    2.2650   -1.1914 H   0  0  0  0  0  0  0  0  0  0  0  0
   -5.4177   -0.0057   -1.9367 H   0  0  0  0  0  0  0  0  0  0  0  0
   -3.2479   -0.9527   -1.2711 H   0  0  0  0  0  0  0  0  0  0  0  0
   -0.4132    0.7858   -1.6051 H   0  0  0  0  0  0  0  0  0  0  0  0
   -0.8153   -0.9105   -1.4893 H   0  0  0  0  0  0  0  0  0  0  0  0
    1.5112    1.6763   -0.0118 H   0  0  0  0  0  0  0  0  0  0  0  0
    3.8402    1.2266    0.5469 H   0  0  0  0  0  0  0  0  0  0  0  0
    0.9442   -2.4694   -1.0816 H   0  0  0  0  0  0  0  0  0  0  0  0
    4.3014   -3.1303   -0.2793 H   0  0  0  0  0  0  0  0  0  0  0  0
    6.8808   -0.7557    0.9999 H   0  0  0  0  0  0  0  0  0  0  0  0
    6.0547    0.5105    0.0839 H   0  0  0  0  0  0  0  0  0  0  0  0
    5.5559    0.1198    1.7767 H   0  0  0  0  0  0  0  0  0  0  0  0
  1  2  1  0
  2  3  1  0
  3  4  1  0
  4  5  2  0
  5  6  1  0
  6  7  2  0
  7  8  1  0
  8  9  2  0
  3 10  1  0
 10 11  1  0
 11 12  2  0
 12 13  1  0
 13 14  2  0
 14 15  1  0
 15 16  2  0
 15 17  1  0
 14 18  1  0
 18 19  1  0
  9  4  1  0
 16 11  1  0
  1 20  1  0
  2 21  1  0
  2 22  1  0
  3 23  1  0
  5 24  1  0
  6 25  1  0
  7 26  1  0
  8 27  1  0
  9 28  1  0
 10 29  1  0
 10 30  1  0
 12 31  1  0
 13 32  1  0
 16 33  1  0
 17 34  1  0
 19 35  1  0
 19 36  1  0
 19 37  1  0
M  END
