
     RDKit          3D

 42 43  0  0  0  0  0  0  0  0999 V2000
   -1.9292    4.0007   -0.5066 C   0  0  0  0  0  0  0  0  0  0  0  0
   -1.8574    2.8300    0.4541 C   0  0  0  0  0  0  0  0  0  0  0  0
   -1.4915    1.6631   -0.2903 O   0  0  0  0  0  0  0  0  0  0  0  0
   -1.3858    0.5284    0.4611 C   0  0  0  0  0  0  0  0  0  0  0  0
   -1.5831    0.4717    1.6697 O   0  0  0  0  0  0  0  0  0  0  0  0
   -1.0145   -0.6561   -0.4229 C   0  0  0  0  0  0  0  0  0  0  0  0
   -2.2567   -1.4125   -0.8715 C   0  0  0  0  0  0  0  0  0  0  0  0
   -3.1206   -2.0179    0.0549 C   0  0  0  0  0  0  0  0  0  0  0  0
   -4.2531   -2.7103   -0.3769 C   0  0  0  0  0  0  0  0  0  0  0  0
   -4.5365   -2.8069   -1.7372 C   0  0  0  0  0  0  0  0  0  0  0  0
   -3.6888   -2.2100   -2.6675 C   0  0  0  0  0  0  0  0  0  0  0  0
   -2.5557   -1.5165   -2.2387 C   0  0  0  0  0  0  0  0  0  0  0  0
   -0.0199   -1.5841    0.3008 C   0  0  0  0  0  0  0  0  0  0  0  0
    1.3514   -0.9644    0.4543 C   0  0  0  0  0  0  0  0  0  0  0  0
    1.7204   -0.3323    1.6508 C   0  0  0  0  0  0  0  0  0  0  0  0
    2.9809    0.2625    1.7914 C   0  0  0  0  0  0  0  0  0  0  0  0
    3.8879    0.2335    0.7339 C   0  0  0  0  0  0  0  0  0  0  0  0
    3.5106   -0.3967   -0.4569 C   0  0  0  0  0  0  0  0  0  0  0  0
    2.2626   -0.9908   -0.6071 C   0  0  0  0  0  0  0  0  0  0  0  0
    4.3765   -0.4398   -1.5166 O   0  0  0  0  0  0  0  0  0  0  0  0
    5.1484    0.7732    0.7305 O   0  0  0  0  0  0  0  0  0  0  0  0
    5.5691    1.4095    1.9318 C   0  0  0  0  0  0  0  0  0  0  0  0
   -0.9641    4.1532   -1.0010 H   0  0  0  0  0  0  0  0  0  0  0  0
   -2.2068    4.9193    0.0177 H   0  0  0  0  0  0  0  0  0  0  0  0
   -2.6639    3.8075   -1.2953 H   0  0  0  0  0  0  0  0  0  0  0  0
   -2.8351    2.6769    0.9245 H   0  0  0  0  0  0  0  0  0  0  0  0
   -1.1036    3.0291    1.2241 H   0  0  0  0  0  0  0  0  0  0  0  0
   -0.5096   -0.2508   -1.3112 H   0  0  0  0  0  0  0  0  0  0  0  0
   -2.9237   -1.9509    1.1238 H   0  0  0  0  0  0  0  0  0  0  0  0
   -4.9156   -3.1728    0.3504 H   0  0  0  0  0  0  0  0  0  0  0  0
   -5.4189   -3.3458   -2.0721 H   0  0  0  0  0  0  0  0  0  0  0  0
   -3.9103   -2.2839   -3.7292 H   0  0  0  0  0  0  0  0  0  0  0  0
   -1.9087   -1.0573   -2.9834 H   0  0  0  0  0  0  0  0  0  0  0  0
   -0.3963   -1.8792    1.2893 H   0  0  0  0  0  0  0  0  0  0  0  0
    0.0941   -2.5236   -0.2579 H   0  0  0  0  0  0  0  0  0  0  0  0
    1.0228   -0.2944    2.4871 H   0  0  0  0  0  0  0  0  0  0  0  0
    3.2151    0.7381    2.7377 H   0  0  0  0  0  0  0  0  0  0  0  0
    2.0116   -1.4703   -1.5494 H   0  0  0  0  0  0  0  0  0  0  0  0
    5.1786    0.0204   -1.2012 H   0  0  0  0  0  0  0  0  0  0  0  0
    6.5873    1.7785    1.7749 H   0  0  0  0  0  0  0  0  0  0  0  0
    4.9350    2.2713    2.1646 H   0  0  0  0  0  0  0  0  0  0  0  0
    5.5968    0.7003    2.7657 H   0  0  0  0  0  0  0  0  0  0  0  0
  1  2  1  0
  2  3  1  0
  3  4  1  0
  4  5  2  0
  4  6  1  0
  6  7  1  0
  7  8  2  0
  8  9  1  0
  9 10  2  0
 10 11  1  0
 11 12  2  0
  6 13  1  0
 13 14  1  0
 14 15  2  0
 15 16  1  0
 16 17  2  0
 17 18  1  0
 18 19  2  0
 18 20  1  0
 17 21  1  0
 21 22  1  0
 12  7  1  0
 19 14  1  0
  1 23  1  0
  1 24  1  0
  1 25  1  0
  2 26  1  0
  2 27  1  0
  6 28  1  0
  8 29  1  0
  9 30  1  0
 10 31  1  0
 11 32  1  0
 12 33  1  0
 13 34  1  0
 13 35  1  0
 15 36  1  0
 16 37  1  0
 19 38  1  0
 20 39  1  0
 22 40  1  0
 22 41  1  0
 22 42  1  0
M  END
