
     RDKit          3D

 32 33  0  0  0  0  0  0  0  0999 V2000
    5.6417    0.6239   -0.4313 C   0  0  0  0  0  0  0  0  0  0  0  0
    4.8013    0.6901    0.7152 O   0  0  0  0  0  0  0  0  0  0  0  0
    3.5014    0.2883    0.5443 C   0  0  0  0  0  0  0  0  0  0  0  0
    2.9301   -0.1750   -0.6390 C   0  0  0  0  0  0  0  0  0  0  0  0
    1.5812   -0.5520   -0.6633 C   0  0  0  0  0  0  0  0  0  0  0  0
    0.7862   -0.4743    0.4925 C   0  0  0  0  0  0  0  0  0  0  0  0
    1.3617   -0.0024    1.6774 C   0  0  0  0  0  0  0  0  0  0  0  0
    2.7019    0.3684    1.6904 C   0  0  0  0  0  0  0  0  0  0  0  0
    3.2323    0.8230    2.8680 O   0  0  0  0  0  0  0  0  0  0  0  0
   -0.6695   -0.8768    0.4469 C   0  0  0  0  0  0  0  0  0  0  0  0
   -1.4065    0.0875   -0.3583 N   0  0  0  0  0  0  0  0  0  0  0  0
   -2.7999   -0.0073   -0.4410 C   0  0  0  0  0  0  0  0  0  0  0  0
   -3.5183    1.1084   -0.8966 C   0  0  0  0  0  0  0  0  0  0  0  0
   -4.9054    1.0639   -1.0657 C   0  0  0  0  0  0  0  0  0  0  0  0
   -5.5987   -0.1136   -0.8076 C   0  0  0  0  0  0  0  0  0  0  0  0
   -4.9009   -1.2448   -0.3959 C   0  0  0  0  0  0  0  0  0  0  0  0
   -3.5120   -1.1937   -0.2291 C   0  0  0  0  0  0  0  0  0  0  0  0
    5.2788    1.2849   -1.2253 H   0  0  0  0  0  0  0  0  0  0  0  0
    5.7425   -0.4066   -0.7878 H   0  0  0  0  0  0  0  0  0  0  0  0
    6.6361    0.9728   -0.1365 H   0  0  0  0  0  0  0  0  0  0  0  0
    3.4968   -0.2537   -1.5604 H   0  0  0  0  0  0  0  0  0  0  0  0
    1.1405   -0.9018   -1.5961 H   0  0  0  0  0  0  0  0  0  0  0  0
    0.7782    0.0812    2.5902 H   0  0  0  0  0  0  0  0  0  0  0  0
    4.1651    1.0255    2.6595 H   0  0  0  0  0  0  0  0  0  0  0  0
   -1.0774   -0.9202    1.4644 H   0  0  0  0  0  0  0  0  0  0  0  0
   -0.7333   -1.8832    0.0156 H   0  0  0  0  0  0  0  0  0  0  0  0
   -1.1064    1.0426   -0.1759 H   0  0  0  0  0  0  0  0  0  0  0  0
   -2.9954    2.0335   -1.1270 H   0  0  0  0  0  0  0  0  0  0  0  0
   -5.4379    1.9469   -1.4079 H   0  0  0  0  0  0  0  0  0  0  0  0
   -6.6761   -0.1543   -0.9413 H   0  0  0  0  0  0  0  0  0  0  0  0
   -5.4330   -2.1747   -0.2134 H   0  0  0  0  0  0  0  0  0  0  0  0
   -3.0048   -2.1064    0.0668 H   0  0  0  0  0  0  0  0  0  0  0  0
  1  2  1  0
  2  3  1  0
  3  4  2  0
  4  5  1  0
  5  6  2  0
  6  7  1  0
  7  8  2  0
  8  9  1  0
  6 10  1  0
 10 11  1  0
 11 12  1  0
 12 13  2  0
 13 14  1  0
 14 15  2  0
 15 16  1  0
 16 17  2  0
  8  3  1  0
 17 12  1  0
  1 18  1  0
  1 19  1  0
  1 20  1  0
  4 21  1  0
  5 22  1  0
  7 23  1  0
  9 24  1  0
 10 25  1  0
 10 26  1  0
 11 27  1  0
 13 28  1  0
 14 29  1  0
 15 30  1  0
 16 31  1  0
 17 32  1  0
M  END
