
     RDKit          3D

 31 32  0  0  0  0  0  0  0  0999 V2000
   -5.4627    0.5017    1.1222 C   0  0  0  0  0  0  0  0  0  0  0  0
   -4.7956   -0.6467    0.6112 O   0  0  0  0  0  0  0  0  0  0  0  0
   -3.4303   -0.5666    0.5124 C   0  0  0  0  0  0  0  0  0  0  0  0
   -2.6381    0.5163    0.8871 C   0  0  0  0  0  0  0  0  0  0  0  0
   -1.2472    0.4547    0.7283 C   0  0  0  0  0  0  0  0  0  0  0  0
   -0.6286   -0.6827    0.1837 C   0  0  0  0  0  0  0  0  0  0  0  0
   -1.4279   -1.7731   -0.1794 C   0  0  0  0  0  0  0  0  0  0  0  0
   -2.8073   -1.7025   -0.0158 C   0  0  0  0  0  0  0  0  0  0  0  0
   -3.5559   -2.7877   -0.3862 O   0  0  0  0  0  0  0  0  0  0  0  0
    0.8749   -0.7617    0.0469 C   0  0  0  0  0  0  0  0  0  0  0  0
    1.3722    0.4755   -0.4634 O   0  0  0  0  0  0  0  0  0  0  0  0
    2.7266    0.5859   -0.6175 C   0  0  0  0  0  0  0  0  0  0  0  0
    3.1562    1.8168   -1.1213 C   0  0  0  0  0  0  0  0  0  0  0  0
    4.5137    2.0675   -1.3277 C   0  0  0  0  0  0  0  0  0  0  0  0
    5.4532    1.0839   -1.0301 C   0  0  0  0  0  0  0  0  0  0  0  0
    5.0329   -0.1466   -0.5280 C   0  0  0  0  0  0  0  0  0  0  0  0
    3.6723   -0.3970   -0.3215 C   0  0  0  0  0  0  0  0  0  0  0  0
   -5.2991    1.3727    0.4790 H   0  0  0  0  0  0  0  0  0  0  0  0
   -6.5361    0.2891    1.1276 H   0  0  0  0  0  0  0  0  0  0  0  0
   -5.1589    0.7076    2.1539 H   0  0  0  0  0  0  0  0  0  0  0  0
   -3.0620    1.4224    1.3061 H   0  0  0  0  0  0  0  0  0  0  0  0
   -0.6414    1.3086    1.0286 H   0  0  0  0  0  0  0  0  0  0  0  0
   -0.9894   -2.6778   -0.5913 H   0  0  0  0  0  0  0  0  0  0  0  0
   -4.4789   -2.5284   -0.1980 H   0  0  0  0  0  0  0  0  0  0  0  0
    1.1376   -1.5711   -0.6453 H   0  0  0  0  0  0  0  0  0  0  0  0
    1.2938   -0.9669    1.0398 H   0  0  0  0  0  0  0  0  0  0  0  0
    2.4251    2.5865   -1.3566 H   0  0  0  0  0  0  0  0  0  0  0  0
    4.8343    3.0284   -1.7209 H   0  0  0  0  0  0  0  0  0  0  0  0
    6.5111    1.2749   -1.1901 H   0  0  0  0  0  0  0  0  0  0  0  0
    5.7661   -0.9153   -0.2965 H   0  0  0  0  0  0  0  0  0  0  0  0
    3.3895   -1.3683    0.0695 H   0  0  0  0  0  0  0  0  0  0  0  0
  1  2  1  0
  2  3  1  0
  3  4  2  0
  4  5  1  0
  5  6  2  0
  6  7  1  0
  7  8  2  0
  8  9  1  0
  6 10  1  0
 10 11  1  0
 11 12  1  0
 12 13  2  0
 13 14  1  0
 14 15  2  0
 15 16  1  0
 16 17  2  0
  8  3  1  0
 17 12  1  0
  1 18  1  0
  1 19  1  0
  1 20  1  0
  4 21  1  0
  5 22  1  0
  7 23  1  0
  9 24  1  0
 10 25  1  0
 10 26  1  0
 13 27  1  0
 14 28  1  0
 15 29  1  0
 16 30  1  0
 17 31  1  0
M  END
