
     RDKit          3D

 31 32  0  0  0  0  0  0  0  0999 V2000
    4.6140    1.7019    0.1834 C   0  0  0  0  0  0  0  0  0  0  0  0
    3.3566    1.9358   -0.4404 O   0  0  0  0  0  0  0  0  0  0  0  0
    2.5178    0.8566   -0.5495 C   0  0  0  0  0  0  0  0  0  0  0  0
    2.7808   -0.4399   -0.1122 C   0  0  0  0  0  0  0  0  0  0  0  0
    1.8236   -1.4474   -0.2907 C   0  0  0  0  0  0  0  0  0  0  0  0
    0.5920   -1.1745   -0.9084 C   0  0  0  0  0  0  0  0  0  0  0  0
    0.3312    0.1303   -1.3443 C   0  0  0  0  0  0  0  0  0  0  0  0
    1.2884    1.1222   -1.1625 C   0  0  0  0  0  0  0  0  0  0  0  0
    0.9988    2.3864   -1.6018 O   0  0  0  0  0  0  0  0  0  0  0  0
   -0.4377   -2.2622   -1.0870 C   0  0  0  0  0  0  0  0  0  0  0  0
   -1.2950   -2.6930    0.4642 S   0  0  0  0  0  0  0  0  0  0  0  0
   -2.3879   -1.2914    0.5941 C   0  0  0  0  0  0  0  0  0  0  0  0
   -2.0321   -0.1944    1.3836 C   0  0  0  0  0  0  0  0  0  0  0  0
   -2.8842    0.9072    1.4808 C   0  0  0  0  0  0  0  0  0  0  0  0
   -4.0995    0.9117    0.7978 C   0  0  0  0  0  0  0  0  0  0  0  0
   -4.4651   -0.1855    0.0191 C   0  0  0  0  0  0  0  0  0  0  0  0
   -3.6121   -1.2864   -0.0811 C   0  0  0  0  0  0  0  0  0  0  0  0
    5.1617    2.6492    0.1956 H   0  0  0  0  0  0  0  0  0  0  0  0
    4.4855    1.3783    1.2216 H   0  0  0  0  0  0  0  0  0  0  0  0
    5.2091    0.9806   -0.3863 H   0  0  0  0  0  0  0  0  0  0  0  0
    3.7140   -0.7051    0.3728 H   0  0  0  0  0  0  0  0  0  0  0  0
    2.0427   -2.4535    0.0636 H   0  0  0  0  0  0  0  0  0  0  0  0
   -0.6149    0.3846   -1.8152 H   0  0  0  0  0  0  0  0  0  0  0  0
    1.7884    2.9154   -1.3764 H   0  0  0  0  0  0  0  0  0  0  0  0
    0.0639   -3.1646   -1.4556 H   0  0  0  0  0  0  0  0  0  0  0  0
   -1.1699   -1.9885   -1.8553 H   0  0  0  0  0  0  0  0  0  0  0  0
   -1.0847   -0.1837    1.9171 H   0  0  0  0  0  0  0  0  0  0  0  0
   -2.5967    1.7619    2.0874 H   0  0  0  0  0  0  0  0  0  0  0  0
   -4.7620    1.7701    0.8740 H   0  0  0  0  0  0  0  0  0  0  0  0
   -5.4150   -0.1846   -0.5090 H   0  0  0  0  0  0  0  0  0  0  0  0
   -3.9117   -2.1377   -0.6869 H   0  0  0  0  0  0  0  0  0  0  0  0
  1  2  1  0
  2  3  1  0
  3  4  2  0
  4  5  1  0
  5  6  2  0
  6  7  1  0
  7  8  2  0
  8  9  1  0
  6 10  1  0
 10 11  1  0
 11 12  1  0
 12 13  2  0
 13 14  1  0
 14 15  2  0
 15 16  1  0
 16 17  2  0
  8  3  1  0
 17 12  1  0
  1 18  1  0
  1 19  1  0
  1 20  1  0
  4 21  1  0
  5 22  1  0
  7 23  1  0
  9 24  1  0
 10 25  1  0
 10 26  1  0
 13 27  1  0
 14 28  1  0
 15 29  1  0
 16 30  1  0
 17 31  1  0
M  END
