
     RDKit          3D

 32 33  0  0  0  0  0  0  0  0999 V2000
    5.7882    0.7308    0.3169 C   0  0  0  0  0  0  0  0  0  0  0  0
    4.7106    1.5033   -0.1998 O   0  0  0  0  0  0  0  0  0  0  0  0
    3.4602    0.9520   -0.0977 C   0  0  0  0  0  0  0  0  0  0  0  0
    3.1457   -0.2860    0.4512 C   0  0  0  0  0  0  0  0  0  0  0  0
    1.8105   -0.7157    0.4854 C   0  0  0  0  0  0  0  0  0  0  0  0
    0.7608    0.0821    0.0011 C   0  0  0  0  0  0  0  0  0  0  0  0
    1.0959    1.3049   -0.5861 C   0  0  0  0  0  0  0  0  0  0  0  0
    2.4226    1.7309   -0.6164 C   0  0  0  0  0  0  0  0  0  0  0  0
    2.6963    2.9488   -1.1823 O   0  0  0  0  0  0  0  0  0  0  0  0
   -0.5325   -0.4470    0.0099 N   0  0  0  0  0  0  0  0  0  0  0  0
   -1.6753    0.4395   -0.1651 C   0  0  0  0  0  0  0  0  0  0  0  0
   -2.9487   -0.3406    0.0678 C   0  0  0  0  0  0  0  0  0  0  0  0
   -3.7033   -0.1519    1.2346 C   0  0  0  0  0  0  0  0  0  0  0  0
   -4.8725   -0.8849    1.4468 C   0  0  0  0  0  0  0  0  0  0  0  0
   -5.2954   -1.8161    0.4996 C   0  0  0  0  0  0  0  0  0  0  0  0
   -4.5490   -2.0187   -0.6596 C   0  0  0  0  0  0  0  0  0  0  0  0
   -3.3804   -1.2868   -0.8740 C   0  0  0  0  0  0  0  0  0  0  0  0
    5.6718    0.5603    1.3923 H   0  0  0  0  0  0  0  0  0  0  0  0
    5.8915   -0.2146   -0.2257 H   0  0  0  0  0  0  0  0  0  0  0  0
    6.7096    1.3022    0.1683 H   0  0  0  0  0  0  0  0  0  0  0  0
    3.9039   -0.9489    0.8527 H   0  0  0  0  0  0  0  0  0  0  0  0
    1.5927   -1.6985    0.8984 H   0  0  0  0  0  0  0  0  0  0  0  0
    0.3445    1.9479   -1.0308 H   0  0  0  0  0  0  0  0  0  0  0  0
    3.6659    3.0444   -1.1111 H   0  0  0  0  0  0  0  0  0  0  0  0
   -0.6748   -1.1139    0.7643 H   0  0  0  0  0  0  0  0  0  0  0  0
   -1.7004    0.8529   -1.1807 H   0  0  0  0  0  0  0  0  0  0  0  0
   -1.6237    1.2807    0.5376 H   0  0  0  0  0  0  0  0  0  0  0  0
   -3.3850    0.5674    1.9859 H   0  0  0  0  0  0  0  0  0  0  0  0
   -5.4534   -0.7303    2.3524 H   0  0  0  0  0  0  0  0  0  0  0  0
   -6.2053   -2.3865    0.6663 H   0  0  0  0  0  0  0  0  0  0  0  0
   -4.8742   -2.7488   -1.3961 H   0  0  0  0  0  0  0  0  0  0  0  0
   -2.7967   -1.4588   -1.7766 H   0  0  0  0  0  0  0  0  0  0  0  0
  1  2  1  0
  2  3  1  0
  3  4  2  0
  4  5  1  0
  5  6  2  0
  6  7  1  0
  7  8  2  0
  8  9  1  0
  6 10  1  0
 10 11  1  0
 11 12  1  0
 12 13  2  0
 13 14  1  0
 14 15  2  0
 15 16  1  0
 16 17  2  0
  8  3  1  0
 17 12  1  0
  1 18  1  0
  1 19  1  0
  1 20  1  0
  4 21  1  0
  5 22  1  0
  7 23  1  0
  9 24  1  0
 10 25  1  0
 11 26  1  0
 11 27  1  0
 13 28  1  0
 14 29  1  0
 15 30  1  0
 16 31  1  0
 17 32  1  0
M  END
