
     RDKit          3D

 32 33  0  0  0  0  0  0  0  0999 V2000
   -5.8788   -0.5769   -0.4955 C   0  0  0  0  0  0  0  0  0  0  0  0
   -5.0008   -0.1556    0.5429 O   0  0  0  0  0  0  0  0  0  0  0  0
   -3.6605   -0.1825    0.2597 C   0  0  0  0  0  0  0  0  0  0  0  0
   -3.0783   -0.5804   -0.9405 C   0  0  0  0  0  0  0  0  0  0  0  0
   -1.6842   -0.5535   -1.0821 C   0  0  0  0  0  0  0  0  0  0  0  0
   -0.8563   -0.1297   -0.0288 C   0  0  0  0  0  0  0  0  0  0  0  0
   -1.4405    0.2694    1.1751 C   0  0  0  0  0  0  0  0  0  0  0  0
   -2.8264    0.2378    1.3022 C   0  0  0  0  0  0  0  0  0  0  0  0
   -3.3672    0.6356    2.4958 O   0  0  0  0  0  0  0  0  0  0  0  0
    0.6246   -0.1245   -0.2444 C   0  0  0  0  0  0  0  0  0  0  0  0
    1.0564   -0.4918   -1.3359 O   0  0  0  0  0  0  0  0  0  0  0  0
    1.5172    0.3351    0.8987 C   0  0  0  0  0  0  0  0  0  0  0  0
    2.9955    0.3055    0.5863 C   0  0  0  0  0  0  0  0  0  0  0  0
    3.7528   -0.8474    0.8367 C   0  0  0  0  0  0  0  0  0  0  0  0
    5.1175   -0.8746    0.5448 C   0  0  0  0  0  0  0  0  0  0  0  0
    5.7367    0.2462   -0.0050 C   0  0  0  0  0  0  0  0  0  0  0  0
    4.9911    1.3937   -0.2685 C   0  0  0  0  0  0  0  0  0  0  0  0
    3.6262    1.4234    0.0225 C   0  0  0  0  0  0  0  0  0  0  0  0
   -5.7953    0.0752   -1.3713 H   0  0  0  0  0  0  0  0  0  0  0  0
   -6.9030   -0.4987   -0.1184 H   0  0  0  0  0  0  0  0  0  0  0  0
   -5.7007   -1.6239   -0.7620 H   0  0  0  0  0  0  0  0  0  0  0  0
   -3.6693   -0.9165   -1.7861 H   0  0  0  0  0  0  0  0  0  0  0  0
   -1.2440   -0.8682   -2.0281 H   0  0  0  0  0  0  0  0  0  0  0  0
   -0.8564    0.6065    2.0245 H   0  0  0  0  0  0  0  0  0  0  0  0
   -4.3337    0.5408    2.3815 H   0  0  0  0  0  0  0  0  0  0  0  0
    1.3326   -0.3051    1.7699 H   0  0  0  0  0  0  0  0  0  0  0  0
    1.2398    1.3602    1.1727 H   0  0  0  0  0  0  0  0  0  0  0  0
    3.2832   -1.7351    1.2538 H   0  0  0  0  0  0  0  0  0  0  0  0
    5.6960   -1.7736    0.7396 H   0  0  0  0  0  0  0  0  0  0  0  0
    6.7979    0.2222   -0.2370 H   0  0  0  0  0  0  0  0  0  0  0  0
    5.4710    2.2639   -0.7081 H   0  0  0  0  0  0  0  0  0  0  0  0
    3.0570    2.3226   -0.2011 H   0  0  0  0  0  0  0  0  0  0  0  0
  1  2  1  0
  2  3  1  0
  3  4  2  0
  4  5  1  0
  5  6  2  0
  6  7  1  0
  7  8  2  0
  8  9  1  0
  6 10  1  0
 10 11  2  0
 10 12  1  0
 12 13  1  0
 13 14  2  0
 14 15  1  0
 15 16  2  0
 16 17  1  0
 17 18  2  0
  8  3  1  0
 18 13  1  0
  1 19  1  0
  1 20  1  0
  1 21  1  0
  4 22  1  0
  5 23  1  0
  7 24  1  0
  9 25  1  0
 12 26  1  0
 12 27  1  0
 14 28  1  0
 15 29  1  0
 16 30  1  0
 17 31  1  0
 18 32  1  0
M  END
