
     RDKit          3D

 31 32  0  0  0  0  0  0  0  0999 V2000
   -5.7457    0.4043    1.0246 C   0  0  0  0  0  0  0  0  0  0  0  0
   -4.8307   -0.5102    0.4303 O   0  0  0  0  0  0  0  0  0  0  0  0
   -3.4991   -0.2088    0.5498 C   0  0  0  0  0  0  0  0  0  0  0  0
   -2.9600    0.9092    1.1831 C   0  0  0  0  0  0  0  0  0  0  0  0
   -1.5706    1.0851    1.2240 C   0  0  0  0  0  0  0  0  0  0  0  0
   -0.7113    0.1506    0.6263 C   0  0  0  0  0  0  0  0  0  0  0  0
   -1.2471   -0.9816    0.0075 C   0  0  0  0  0  0  0  0  0  0  0  0
   -2.6280   -1.1412   -0.0281 C   0  0  0  0  0  0  0  0  0  0  0  0
   -3.1272   -2.2550   -0.6486 O   0  0  0  0  0  0  0  0  0  0  0  0
    0.7591    0.3889    0.7002 C   0  0  0  0  0  0  0  0  0  0  0  0
    1.1964    0.9847    1.6774 O   0  0  0  0  0  0  0  0  0  0  0  0
    1.4814   -0.0647   -0.3887 N   0  0  0  0  0  0  0  0  0  0  0  0
    2.8792   -0.0080   -0.5735 C   0  0  0  0  0  0  0  0  0  0  0  0
    3.7762    0.4634    0.3863 C   0  0  0  0  0  0  0  0  0  0  0  0
    5.1504    0.4810    0.1249 C   0  0  0  0  0  0  0  0  0  0  0  0
    5.6393    0.0255   -1.0970 C   0  0  0  0  0  0  0  0  0  0  0  0
    4.7541   -0.4502   -2.0600 C   0  0  0  0  0  0  0  0  0  0  0  0
    3.3813   -0.4677   -1.7987 C   0  0  0  0  0  0  0  0  0  0  0  0
   -5.6750    1.3921    0.5575 H   0  0  0  0  0  0  0  0  0  0  0  0
   -5.5949    0.4656    2.1075 H   0  0  0  0  0  0  0  0  0  0  0  0
   -6.7571    0.0249    0.8500 H   0  0  0  0  0  0  0  0  0  0  0  0
   -3.5826    1.6612    1.6564 H   0  0  0  0  0  0  0  0  0  0  0  0
   -1.1558    1.9588    1.7252 H   0  0  0  0  0  0  0  0  0  0  0  0
   -0.6178   -1.7551   -0.4203 H   0  0  0  0  0  0  0  0  0  0  0  0
   -4.0976   -2.1879   -0.5487 H   0  0  0  0  0  0  0  0  0  0  0  0
    0.9558   -0.4268   -1.1731 H   0  0  0  0  0  0  0  0  0  0  0  0
    3.4397    0.8223    1.3537 H   0  0  0  0  0  0  0  0  0  0  0  0
    5.8364    0.8517    0.8824 H   0  0  0  0  0  0  0  0  0  0  0  0
    6.7075    0.0408   -1.2958 H   0  0  0  0  0  0  0  0  0  0  0  0
    5.1306   -0.8081   -3.0146 H   0  0  0  0  0  0  0  0  0  0  0  0
    2.7129   -0.8448   -2.5681 H   0  0  0  0  0  0  0  0  0  0  0  0
  1  2  1  0
  2  3  1  0
  3  4  2  0
  4  5  1  0
  5  6  2  0
  6  7  1  0
  7  8  2  0
  8  9  1  0
  6 10  1  0
 10 11  2  0
 10 12  1  0
 12 13  1  0
 13 14  2  0
 14 15  1  0
 15 16  2  0
 16 17  1  0
 17 18  2  0
  8  3  1  0
 18 13  1  0
  1 19  1  0
  1 20  1  0
  1 21  1  0
  4 22  1  0
  5 23  1  0
  7 24  1  0
  9 25  1  0
 12 26  1  0
 14 27  1  0
 15 28  1  0
 16 29  1  0
 17 30  1  0
 18 31  1  0
M  END
