
     RDKit          3D

 22 21  0  0  0  0  0  0  0  0999 V2000
   -1.2525    1.9895   -0.7841 O   0  0  0  0  0  0  0  0  0  0  0  0
   -1.3153    0.8195   -1.5964 C   0  0  0  0  0  0  0  0  0  0  0  0
   -1.4703   -0.4186   -0.7219 C   0  0  0  0  0  0  0  0  0  0  0  0
   -0.4732   -0.5552    0.4423 C   0  0  0  0  0  0  0  0  0  0  0  0
    1.0124   -0.6340    0.0607 C   0  0  0  0  0  0  0  0  0  0  0  0
    1.6898    0.7238   -0.1461 C   0  0  0  0  0  0  0  0  0  0  0  0
    3.0945    0.4894   -0.3125 O   0  0  0  0  0  0  0  0  0  0  0  0
    1.6997   -1.2904    1.1565 O   0  0  0  0  0  0  0  0  0  0  0  0
   -0.8344   -1.7893    1.1181 O   0  0  0  0  0  0  0  0  0  0  0  0
   -2.7912   -0.3662   -0.1395 O   0  0  0  0  0  0  0  0  0  0  0  0
   -2.0941    1.9928   -0.2839 H   0  0  0  0  0  0  0  0  0  0  0  0
   -2.1738    0.9316   -2.2676 H   0  0  0  0  0  0  0  0  0  0  0  0
   -0.4145    0.7671   -2.2120 H   0  0  0  0  0  0  0  0  0  0  0  0
   -1.4497   -1.3173   -1.3492 H   0  0  0  0  0  0  0  0  0  0  0  0
   -0.6358    0.2295    1.1906 H   0  0  0  0  0  0  0  0  0  0  0  0
    1.1615   -1.2829   -0.8096 H   0  0  0  0  0  0  0  0  0  0  0  0
    1.3309    1.2481   -1.0310 H   0  0  0  0  0  0  0  0  0  0  0  0
    1.5682    1.3604    0.7360 H   0  0  0  0  0  0  0  0  0  0  0  0
    3.5074    1.3633   -0.4382 H   0  0  0  0  0  0  0  0  0  0  0  0
    2.6503   -1.1301    0.9725 H   0  0  0  0  0  0  0  0  0  0  0  0
   -0.0180   -2.0371    1.6074 H   0  0  0  0  0  0  0  0  0  0  0  0
   -2.7920   -1.0938    0.5190 H   0  0  0  0  0  0  0  0  0  0  0  0
  1  2  1  0
  2  3  1  0
  3  4  1  0
  4  5  1  0
  5  6  1  0
  6  7  1  0
  5  8  1  0
  4  9  1  0
  3 10  1  0
  1 11  1  0
  2 12  1  0
  2 13  1  0
  3 14  1  0
  4 15  1  0
  5 16  1  0
  6 17  1  0
  6 18  1  0
  7 19  1  0
  8 20  1  0
  9 21  1  0
 10 22  1  0
M  END
