
     RDKit          3D

 30 31  0  0  0  0  0  0  0  0999 V2000
    5.7471   -0.0883    0.0756 C   0  0  0  0  0  0  0  0  0  0  0  0
    4.7282    0.6103   -0.6316 O   0  0  0  0  0  0  0  0  0  0  0  0
    3.4336    0.2753   -0.3319 C   0  0  0  0  0  0  0  0  0  0  0  0
    3.0224   -0.6801    0.5946 C   0  0  0  0  0  0  0  0  0  0  0  0
    1.6553   -0.9149    0.7949 C   0  0  0  0  0  0  0  0  0  0  0  0
    0.6867   -0.1983    0.0726 C   0  0  0  0  0  0  0  0  0  0  0  0
    1.0985    0.7603   -0.8578 C   0  0  0  0  0  0  0  0  0  0  0  0
    2.4588    0.9829   -1.0462 C   0  0  0  0  0  0  0  0  0  0  0  0
    2.8324    1.9280   -1.9638 O   0  0  0  0  0  0  0  0  0  0  0  0
   -0.7477   -0.5003    0.3367 C   0  0  0  0  0  0  0  0  0  0  0  0
   -1.1076   -1.3525    1.1353 O   0  0  0  0  0  0  0  0  0  0  0  0
   -1.5486    0.3164   -0.4382 O   0  0  0  0  0  0  0  0  0  0  0  0
   -2.9207    0.1077   -0.2708 C   0  0  0  0  0  0  0  0  0  0  0  0
   -3.5314   -1.0358   -0.7840 C   0  0  0  0  0  0  0  0  0  0  0  0
   -4.9107   -1.1886   -0.6494 C   0  0  0  0  0  0  0  0  0  0  0  0
   -5.6660   -0.1959   -0.0205 C   0  0  0  0  0  0  0  0  0  0  0  0
   -5.0453    0.9546    0.4719 C   0  0  0  0  0  0  0  0  0  0  0  0
   -3.6663    1.1131    0.3412 C   0  0  0  0  0  0  0  0  0  0  0  0
    5.6824    0.1033    1.1518 H   0  0  0  0  0  0  0  0  0  0  0  0
    6.7134    0.2890   -0.2725 H   0  0  0  0  0  0  0  0  0  0  0  0
    5.7112   -1.1614   -0.1391 H   0  0  0  0  0  0  0  0  0  0  0  0
    3.7300   -1.2600    1.1780 H   0  0  0  0  0  0  0  0  0  0  0  0
    1.3474   -1.6649    1.5229 H   0  0  0  0  0  0  0  0  0  0  0  0
    0.3873    1.3380   -1.4408 H   0  0  0  0  0  0  0  0  0  0  0  0
    3.8097    1.9300   -1.9452 H   0  0  0  0  0  0  0  0  0  0  0  0
   -2.9426   -1.8039   -1.2755 H   0  0  0  0  0  0  0  0  0  0  0  0
   -5.3980   -2.0809   -1.0335 H   0  0  0  0  0  0  0  0  0  0  0  0
   -6.7412   -0.3185    0.0842 H   0  0  0  0  0  0  0  0  0  0  0  0
   -5.6378    1.7266    0.9557 H   0  0  0  0  0  0  0  0  0  0  0  0
   -3.1802    2.0087    0.7152 H   0  0  0  0  0  0  0  0  0  0  0  0
  1  2  1  0
  2  3  1  0
  3  4  2  0
  4  5  1  0
  5  6  2  0
  6  7  1  0
  7  8  2  0
  8  9  1  0
  6 10  1  0
 10 11  2  0
 10 12  1  0
 12 13  1  0
 13 14  2  0
 14 15  1  0
 15 16  2  0
 16 17  1  0
 17 18  2  0
  8  3  1  0
 18 13  1  0
  1 19  1  0
  1 20  1  0
  1 21  1  0
  4 22  1  0
  5 23  1  0
  7 24  1  0
  9 25  1  0
 14 26  1  0
 15 27  1  0
 16 28  1  0
 17 29  1  0
 18 30  1  0
M  END
