
     RDKit          3D

 30 31  0  0  0  0  0  0  0  0999 V2000
   -4.9455   -1.2561    1.0478 C   0  0  0  0  0  0  0  0  0  0  0  0
   -4.0946   -0.1419    1.2994 O   0  0  0  0  0  0  0  0  0  0  0  0
   -2.9858   -0.0244    0.5024 C   0  0  0  0  0  0  0  0  0  0  0  0
   -2.6013   -0.8994   -0.5091 C   0  0  0  0  0  0  0  0  0  0  0  0
   -1.4358   -0.6444   -1.2467 C   0  0  0  0  0  0  0  0  0  0  0  0
   -0.6366    0.4817   -0.9799 C   0  0  0  0  0  0  0  0  0  0  0  0
   -1.0263    1.3590    0.0369 C   0  0  0  0  0  0  0  0  0  0  0  0
   -2.1859    1.0954    0.7602 C   0  0  0  0  0  0  0  0  0  0  0  0
   -2.5385    1.9760    1.7480 O   0  0  0  0  0  0  0  0  0  0  0  0
    0.5843    0.6761   -1.8186 C   0  0  0  0  0  0  0  0  0  0  0  0
    0.7687   -0.0009   -2.8235 O   0  0  0  0  0  0  0  0  0  0  0  0
    1.7653    1.8870   -1.3356 S   0  0  0  0  0  0  0  0  0  0  0  0
    2.8816    0.8599   -0.3984 C   0  0  0  0  0  0  0  0  0  0  0  0
    3.5613   -0.2036   -1.0014 C   0  0  0  0  0  0  0  0  0  0  0  0
    4.4383   -0.9933   -0.2550 C   0  0  0  0  0  0  0  0  0  0  0  0
    4.6470   -0.7208    1.0960 C   0  0  0  0  0  0  0  0  0  0  0  0
    3.9805    0.3431    1.7011 C   0  0  0  0  0  0  0  0  0  0  0  0
    3.1020    1.1337    0.9555 C   0  0  0  0  0  0  0  0  0  0  0  0
   -5.7978   -1.1876    1.7325 H   0  0  0  0  0  0  0  0  0  0  0  0
   -4.4259   -2.1989    1.2526 H   0  0  0  0  0  0  0  0  0  0  0  0
   -5.3374   -1.2322    0.0246 H   0  0  0  0  0  0  0  0  0  0  0  0
   -3.1761   -1.7861   -0.7538 H   0  0  0  0  0  0  0  0  0  0  0  0
   -1.1513   -1.3396   -2.0367 H   0  0  0  0  0  0  0  0  0  0  0  0
   -0.4642    2.2542    0.2798 H   0  0  0  0  0  0  0  0  0  0  0  0
   -3.3692    1.6204    2.1231 H   0  0  0  0  0  0  0  0  0  0  0  0
    3.4147   -0.4247   -2.0574 H   0  0  0  0  0  0  0  0  0  0  0  0
    4.9606   -1.8191   -0.7299 H   0  0  0  0  0  0  0  0  0  0  0  0
    5.3313   -1.3352    1.6761 H   0  0  0  0  0  0  0  0  0  0  0  0
    4.1435    0.5582    2.7548 H   0  0  0  0  0  0  0  0  0  0  0  0
    2.5928    1.9634    1.4417 H   0  0  0  0  0  0  0  0  0  0  0  0
  1  2  1  0
  2  3  1  0
  3  4  2  0
  4  5  1  0
  5  6  2  0
  6  7  1  0
  7  8  2  0
  8  9  1  0
  6 10  1  0
 10 11  2  0
 10 12  1  0
 12 13  1  0
 13 14  2  0
 14 15  1  0
 15 16  2  0
 16 17  1  0
 17 18  2  0
  8  3  1  0
 18 13  1  0
  1 19  1  0
  1 20  1  0
  1 21  1  0
  4 22  1  0
  5 23  1  0
  7 24  1  0
  9 25  1  0
 14 26  1  0
 15 27  1  0
 16 28  1  0
 17 29  1  0
 18 30  1  0
M  END
