
     RDKit          3D

 33 34  0  0  0  0  0  0  0  0999 V2000
    5.5563   -0.5800    1.2823 C   0  0  0  0  0  0  0  0  0  0  0  0
    4.9373   -0.3332    0.0250 O   0  0  0  0  0  0  0  0  0  0  0  0
    3.6874    0.2296    0.0582 C   0  0  0  0  0  0  0  0  0  0  0  0
    2.9656    0.5689    1.2009 C   0  0  0  0  0  0  0  0  0  0  0  0
    1.6917    1.1402    1.0812 C   0  0  0  0  0  0  0  0  0  0  0  0
    1.1270    1.3869   -0.1800 C   0  0  0  0  0  0  0  0  0  0  0  0
    1.8487    1.0332   -1.3254 C   0  0  0  0  0  0  0  0  0  0  0  0
    3.1118    0.4669   -1.1951 C   0  0  0  0  0  0  0  0  0  0  0  0
    3.7919    0.1387   -2.3372 O   0  0  0  0  0  0  0  0  0  0  0  0
   -0.2528    1.9797   -0.2979 C   0  0  0  0  0  0  0  0  0  0  0  0
   -1.1925    0.9062   -0.2205 O   0  0  0  0  0  0  0  0  0  0  0  0
   -2.4848    1.3061   -0.2726 C   0  0  0  0  0  0  0  0  0  0  0  0
   -2.8706    2.4609   -0.3621 O   0  0  0  0  0  0  0  0  0  0  0  0
   -3.3982    0.1335   -0.1996 C   0  0  0  0  0  0  0  0  0  0  0  0
   -4.7799    0.3698   -0.2015 C   0  0  0  0  0  0  0  0  0  0  0  0
   -5.6773   -0.6980   -0.1349 C   0  0  0  0  0  0  0  0  0  0  0  0
   -5.2000   -2.0062   -0.0668 C   0  0  0  0  0  0  0  0  0  0  0  0
   -3.8270   -2.2502   -0.0655 C   0  0  0  0  0  0  0  0  0  0  0  0
   -2.9257   -1.1848   -0.1318 C   0  0  0  0  0  0  0  0  0  0  0  0
    4.9793   -1.3006    1.8712 H   0  0  0  0  0  0  0  0  0  0  0  0
    5.7108    0.3519    1.8361 H   0  0  0  0  0  0  0  0  0  0  0  0
    6.5397   -1.0195    1.0894 H   0  0  0  0  0  0  0  0  0  0  0  0
    3.3568    0.4018    2.1986 H   0  0  0  0  0  0  0  0  0  0  0  0
    1.1363    1.3904    1.9835 H   0  0  0  0  0  0  0  0  0  0  0  0
    1.4351    1.1920   -2.3177 H   0  0  0  0  0  0  0  0  0  0  0  0
    4.6378   -0.2369   -2.0246 H   0  0  0  0  0  0  0  0  0  0  0  0
   -0.3588    2.5063   -1.2544 H   0  0  0  0  0  0  0  0  0  0  0  0
   -0.4201    2.6957    0.5165 H   0  0  0  0  0  0  0  0  0  0  0  0
   -5.1627    1.3873   -0.2555 H   0  0  0  0  0  0  0  0  0  0  0  0
   -6.7478   -0.5081   -0.1372 H   0  0  0  0  0  0  0  0  0  0  0  0
   -5.8994   -2.8373   -0.0160 H   0  0  0  0  0  0  0  0  0  0  0  0
   -3.4567   -3.2714   -0.0143 H   0  0  0  0  0  0  0  0  0  0  0  0
   -1.8593   -1.3983   -0.1320 H   0  0  0  0  0  0  0  0  0  0  0  0
  1  2  1  0
  2  3  1  0
  3  4  2  0
  4  5  1  0
  5  6  2  0
  6  7  1  0
  7  8  2  0
  8  9  1  0
  6 10  1  0
 10 11  1  0
 11 12  1  0
 12 13  2  0
 12 14  1  0
 14 15  2  0
 15 16  1  0
 16 17  2  0
 17 18  1  0
 18 19  2  0
  8  3  1  0
 19 14  1  0
  1 20  1  0
  1 21  1  0
  1 22  1  0
  4 23  1  0
  5 24  1  0
  7 25  1  0
  9 26  1  0
 10 27  1  0
 10 28  1  0
 15 29  1  0
 16 30  1  0
 17 31  1  0
 18 32  1  0
 19 33  1  0
M  END
