
     RDKit          3D

 34 35  0  0  0  0  0  0  0  0999 V2000
    5.7841    0.4860    1.2534 C   0  0  0  0  0  0  0  0  0  0  0  0
    4.8516    1.4640    0.8076 O   0  0  0  0  0  0  0  0  0  0  0  0
    3.7001    0.9939    0.2305 C   0  0  0  0  0  0  0  0  0  0  0  0
    3.3534   -0.3440    0.0521 C   0  0  0  0  0  0  0  0  0  0  0  0
    2.1362   -0.6775   -0.5569 C   0  0  0  0  0  0  0  0  0  0  0  0
    1.2551    0.3202   -1.0024 C   0  0  0  0  0  0  0  0  0  0  0  0
    1.6001    1.6627   -0.8102 C   0  0  0  0  0  0  0  0  0  0  0  0
    2.8102    1.9821   -0.2047 C   0  0  0  0  0  0  0  0  0  0  0  0
    3.1174    3.3059   -0.0381 O   0  0  0  0  0  0  0  0  0  0  0  0
   -0.0619   -0.0468   -1.6339 C   0  0  0  0  0  0  0  0  0  0  0  0
   -1.0159   -0.2062   -0.5816 O   0  0  0  0  0  0  0  0  0  0  0  0
   -2.2450   -0.5754   -1.0054 C   0  0  0  0  0  0  0  0  0  0  0  0
   -2.5744   -0.7842   -2.1653 O   0  0  0  0  0  0  0  0  0  0  0  0
   -3.1936   -0.7145    0.1281 C   0  0  0  0  0  0  0  0  0  0  0  0
   -2.8043   -0.4402    1.4488 C   0  0  0  0  0  0  0  0  0  0  0  0
   -3.7180   -0.5802    2.4971 C   0  0  0  0  0  0  0  0  0  0  0  0
   -5.0235   -0.9939    2.2361 C   0  0  0  0  0  0  0  0  0  0  0  0
   -5.4201   -1.2678    0.9276 C   0  0  0  0  0  0  0  0  0  0  0  0
   -4.5112   -1.1282   -0.1205 C   0  0  0  0  0  0  0  0  0  0  0  0
   -4.9917   -1.4179   -1.3709 O   0  0  0  0  0  0  0  0  0  0  0  0
    6.1473   -0.1228    0.4188 H   0  0  0  0  0  0  0  0  0  0  0  0
    6.6431    1.0136    1.6790 H   0  0  0  0  0  0  0  0  0  0  0  0
    5.3531   -0.1392    2.0424 H   0  0  0  0  0  0  0  0  0  0  0  0
    3.9994   -1.1530    0.3756 H   0  0  0  0  0  0  0  0  0  0  0  0
    1.8762   -1.7274   -0.6796 H   0  0  0  0  0  0  0  0  0  0  0  0
    0.9344    2.4618   -1.1251 H   0  0  0  0  0  0  0  0  0  0  0  0
    3.9919    3.3066    0.3974 H   0  0  0  0  0  0  0  0  0  0  0  0
    0.0430   -0.9809   -2.1998 H   0  0  0  0  0  0  0  0  0  0  0  0
   -0.3862    0.7442   -2.3212 H   0  0  0  0  0  0  0  0  0  0  0  0
   -1.7924   -0.1141    1.6792 H   0  0  0  0  0  0  0  0  0  0  0  0
   -3.4105   -0.3651    3.5180 H   0  0  0  0  0  0  0  0  0  0  0  0
   -5.7347   -1.1024    3.0514 H   0  0  0  0  0  0  0  0  0  0  0  0
   -6.4379   -1.5893    0.7218 H   0  0  0  0  0  0  0  0  0  0  0  0
   -4.2753   -1.2701   -2.0264 H   0  0  0  0  0  0  0  0  0  0  0  0
  1  2  1  0
  2  3  1  0
  3  4  2  0
  4  5  1  0
  5  6  2  0
  6  7  1  0
  7  8  2  0
  8  9  1  0
  6 10  1  0
 10 11  1  0
 11 12  1  0
 12 13  2  0
 12 14  1  0
 14 15  2  0
 15 16  1  0
 16 17  2  0
 17 18  1  0
 18 19  2  0
 19 20  1  0
  8  3  1  0
 19 14  1  0
  1 21  1  0
  1 22  1  0
  1 23  1  0
  4 24  1  0
  5 25  1  0
  7 26  1  0
  9 27  1  0
 10 28  1  0
 10 29  1  0
 15 30  1  0
 16 31  1  0
 17 32  1  0
 18 33  1  0
 20 34  1  0
M  END
