
     RDKit          3D

 33 34  0  0  0  0  0  0  0  0999 V2000
    4.6349    2.2064   -0.1897 C   0  0  0  0  0  0  0  0  0  0  0  0
    4.1739    1.0560   -0.8896 O   0  0  0  0  0  0  0  0  0  0  0  0
    3.0615    0.4366   -0.3817 C   0  0  0  0  0  0  0  0  0  0  0  0
    2.3502    0.8178    0.7537 C   0  0  0  0  0  0  0  0  0  0  0  0
    1.2241    0.0865    1.1550 C   0  0  0  0  0  0  0  0  0  0  0  0
    0.7866   -1.0286    0.4227 C   0  0  0  0  0  0  0  0  0  0  0  0
    1.5164   -1.4203   -0.7054 C   0  0  0  0  0  0  0  0  0  0  0  0
    2.6310   -0.6861   -1.0959 C   0  0  0  0  0  0  0  0  0  0  0  0
    3.3096   -1.0934   -2.2130 O   0  0  0  0  0  0  0  0  0  0  0  0
   -0.4186   -1.8230    0.8624 C   0  0  0  0  0  0  0  0  0  0  0  0
   -1.6420   -0.9719    1.1458 C   0  0  0  0  0  0  0  0  0  0  0  0
   -1.9459   -0.6661    2.3032 O   0  0  0  0  0  0  0  0  0  0  0  0
   -2.5052   -0.4779    0.0277 C   0  0  0  0  0  0  0  0  0  0  0  0
   -2.1956   -0.7307   -1.3161 C   0  0  0  0  0  0  0  0  0  0  0  0
   -3.0256   -0.2554   -2.3375 C   0  0  0  0  0  0  0  0  0  0  0  0
   -4.1712    0.4746   -2.0291 C   0  0  0  0  0  0  0  0  0  0  0  0
   -4.4902    0.7343   -0.6987 C   0  0  0  0  0  0  0  0  0  0  0  0
   -3.6632    0.2634    0.3204 C   0  0  0  0  0  0  0  0  0  0  0  0
   -4.0591    0.5719    1.5960 O   0  0  0  0  0  0  0  0  0  0  0  0
    5.5160    2.5860   -0.7159 H   0  0  0  0  0  0  0  0  0  0  0  0
    3.8790    2.9986   -0.1912 H   0  0  0  0  0  0  0  0  0  0  0  0
    4.9404    1.9512    0.8304 H   0  0  0  0  0  0  0  0  0  0  0  0
    2.6404    1.6737    1.3539 H   0  0  0  0  0  0  0  0  0  0  0  0
    0.6906    0.3978    2.0531 H   0  0  0  0  0  0  0  0  0  0  0  0
    1.2301   -2.2921   -1.2875 H   0  0  0  0  0  0  0  0  0  0  0  0
    4.0472   -0.4584   -2.3019 H   0  0  0  0  0  0  0  0  0  0  0  0
   -0.6825   -2.6014    0.1374 H   0  0  0  0  0  0  0  0  0  0  0  0
   -0.1618   -2.3632    1.7829 H   0  0  0  0  0  0  0  0  0  0  0  0
   -1.3122   -1.2885   -1.6086 H   0  0  0  0  0  0  0  0  0  0  0  0
   -2.7742   -0.4536   -3.3773 H   0  0  0  0  0  0  0  0  0  0  0  0
   -4.8149    0.8440   -2.8235 H   0  0  0  0  0  0  0  0  0  0  0  0
   -5.3816    1.3051   -0.4512 H   0  0  0  0  0  0  0  0  0  0  0  0
   -3.3882    0.2068    2.2162 H   0  0  0  0  0  0  0  0  0  0  0  0
  1  2  1  0
  2  3  1  0
  3  4  2  0
  4  5  1  0
  5  6  2  0
  6  7  1  0
  7  8  2  0
  8  9  1  0
  6 10  1  0
 10 11  1  0
 11 12  2  0
 11 13  1  0
 13 14  2  0
 14 15  1  0
 15 16  2  0
 16 17  1  0
 17 18  2  0
 18 19  1  0
  8  3  1  0
 18 13  1  0
  1 20  1  0
  1 21  1  0
  1 22  1  0
  4 23  1  0
  5 24  1  0
  7 25  1  0
  9 26  1  0
 10 27  1  0
 10 28  1  0
 14 29  1  0
 15 30  1  0
 16 31  1  0
 17 32  1  0
 19 33  1  0
M  END
