
     RDKit          3D

 17 17  0  0  0  0  0  0  0  0999 V2000
    2.6469   -0.0025    0.3251 C   0  0  0  0  0  0  0  0  0  0  0  0
    1.5371    0.8639    0.1195 O   0  0  0  0  0  0  0  0  0  0  0  0
    0.3064    0.2677    0.0162 C   0  0  0  0  0  0  0  0  0  0  0  0
    0.0428   -1.0998    0.0934 C   0  0  0  0  0  0  0  0  0  0  0  0
   -1.2714   -1.5670   -0.0305 C   0  0  0  0  0  0  0  0  0  0  0  0
   -2.3248   -0.6729   -0.2315 C   0  0  0  0  0  0  0  0  0  0  0  0
   -2.0701    0.6941   -0.3097 C   0  0  0  0  0  0  0  0  0  0  0  0
   -0.7630    1.1490   -0.1857 C   0  0  0  0  0  0  0  0  0  0  0  0
   -0.5376    2.4970   -0.2661 O   0  0  0  0  0  0  0  0  0  0  0  0
    2.7723   -0.6901   -0.5178 H   0  0  0  0  0  0  0  0  0  0  0  0
    3.5469    0.6169    0.3860 H   0  0  0  0  0  0  0  0  0  0  0  0
    2.5528   -0.5468    1.2706 H   0  0  0  0  0  0  0  0  0  0  0  0
    0.8304   -1.8291    0.2485 H   0  0  0  0  0  0  0  0  0  0  0  0
   -1.4741   -2.6337    0.0301 H   0  0  0  0  0  0  0  0  0  0  0  0
   -3.3428   -1.0413   -0.3269 H   0  0  0  0  0  0  0  0  0  0  0  0
   -2.8799    1.4001   -0.4657 H   0  0  0  0  0  0  0  0  0  0  0  0
    0.4280    2.5946   -0.1554 H   0  0  0  0  0  0  0  0  0  0  0  0
  1  2  1  0
  2  3  1  0
  3  4  2  0
  4  5  1  0
  5  6  2  0
  6  7  1  0
  7  8  2  0
  8  9  1  0
  8  3  1  0
  1 10  1  0
  1 11  1  0
  1 12  1  0
  4 13  1  0
  5 14  1  0
  6 15  1  0
  7 16  1  0
  9 17  1  0
M  END
