
     RDKit          3D

 39 40  0  0  0  0  0  0  0  0999 V2000
    6.4206    0.3303    0.4874 C   0  0  0  0  0  0  0  0  0  0  0  0
    5.6576   -0.3722   -0.4867 O   0  0  0  0  0  0  0  0  0  0  0  0
    4.3088   -0.4649   -0.2567 C   0  0  0  0  0  0  0  0  0  0  0  0
    3.6193    0.0653    0.8322 C   0  0  0  0  0  0  0  0  0  0  0  0
    2.2328   -0.1082    0.9361 C   0  0  0  0  0  0  0  0  0  0  0  0
    1.5201   -0.8163   -0.0428 C   0  0  0  0  0  0  0  0  0  0  0  0
    2.2131   -1.3421   -1.1384 C   0  0  0  0  0  0  0  0  0  0  0  0
    3.5888   -1.1641   -1.2319 C   0  0  0  0  0  0  0  0  0  0  0  0
    4.2361   -1.6939   -2.3162 O   0  0  0  0  0  0  0  0  0  0  0  0
    0.0241   -0.9831    0.0675 C   0  0  0  0  0  0  0  0  0  0  0  0
   -0.7209    0.2084   -0.5432 C   0  0  0  0  0  0  0  0  0  0  0  0
   -2.2504    0.0209   -0.5827 C   0  0  0  0  0  0  0  0  0  0  0  0
   -2.8932    1.1822   -1.3615 C   0  0  0  0  0  0  0  0  0  0  0  0
   -4.4146    1.0705   -1.4048 C   0  0  0  0  0  0  0  0  0  0  0  0
   -5.0079    0.9665   -0.0048 C   0  0  0  0  0  0  0  0  0  0  0  0
   -4.3876   -0.1856    0.7769 C   0  0  0  0  0  0  0  0  0  0  0  0
   -2.8638   -0.0859    0.8232 C   0  0  0  0  0  0  0  0  0  0  0  0
    7.4666    0.3151    0.1663 H   0  0  0  0  0  0  0  0  0  0  0  0
    6.3648   -0.1629    1.4635 H   0  0  0  0  0  0  0  0  0  0  0  0
    6.1079    1.3776    0.5535 H   0  0  0  0  0  0  0  0  0  0  0  0
    4.1228    0.6191    1.6169 H   0  0  0  0  0  0  0  0  0  0  0  0
    1.7088    0.3160    1.7904 H   0  0  0  0  0  0  0  0  0  0  0  0
    1.6916   -1.8875   -1.9200 H   0  0  0  0  0  0  0  0  0  0  0  0
    5.1746   -1.4571   -2.1850 H   0  0  0  0  0  0  0  0  0  0  0  0
   -0.2373   -1.1060    1.1249 H   0  0  0  0  0  0  0  0  0  0  0  0
   -0.2769   -1.9129   -0.4312 H   0  0  0  0  0  0  0  0  0  0  0  0
   -0.3599    0.3667   -1.5684 H   0  0  0  0  0  0  0  0  0  0  0  0
   -0.4740    1.1227    0.0126 H   0  0  0  0  0  0  0  0  0  0  0  0
   -2.4680   -0.9099   -1.1242 H   0  0  0  0  0  0  0  0  0  0  0  0
   -2.5069    1.2023   -2.3877 H   0  0  0  0  0  0  0  0  0  0  0  0
   -2.6155    2.1384   -0.8994 H   0  0  0  0  0  0  0  0  0  0  0  0
   -4.8335    1.9432   -1.9185 H   0  0  0  0  0  0  0  0  0  0  0  0
   -4.6996    0.1877   -1.9903 H   0  0  0  0  0  0  0  0  0  0  0  0
   -6.0924    0.8253   -0.0726 H   0  0  0  0  0  0  0  0  0  0  0  0
   -4.8404    1.9068    0.5347 H   0  0  0  0  0  0  0  0  0  0  0  0
   -4.7863   -0.1945    1.7976 H   0  0  0  0  0  0  0  0  0  0  0  0
   -4.6755   -1.1375    0.3139 H   0  0  0  0  0  0  0  0  0  0  0  0
   -2.4774   -0.9689    1.3436 H   0  0  0  0  0  0  0  0  0  0  0  0
   -2.5767    0.7885    1.4209 H   0  0  0  0  0  0  0  0  0  0  0  0
  1  2  1  0
  2  3  1  0
  3  4  2  0
  4  5  1  0
  5  6  2  0
  6  7  1  0
  7  8  2  0
  8  9  1  0
  6 10  1  0
 10 11  1  0
 11 12  1  0
 12 13  1  0
 13 14  1  0
 14 15  1  0
 15 16  1  0
 16 17  1  0
  8  3  1  0
 17 12  1  0
  1 18  1  0
  1 19  1  0
  1 20  1  0
  4 21  1  0
  5 22  1  0
  7 23  1  0
  9 24  1  0
 10 25  1  0
 10 26  1  0
 11 27  1  0
 11 28  1  0
 12 29  1  0
 13 30  1  0
 13 31  1  0
 14 32  1  0
 14 33  1  0
 15 34  1  0
 15 35  1  0
 16 36  1  0
 16 37  1  0
 17 38  1  0
 17 39  1  0
M  END
