
     RDKit          3D

 31 31  0  0  0  0  0  0  0  0999 V2000
    5.4720    0.5216    0.3104 C   0  0  0  0  0  0  0  0  0  0  0  0
    4.0108    0.8390    0.0318 C   0  0  0  0  0  0  0  0  0  0  0  0
    3.1172   -0.3740    0.2937 C   0  0  0  0  0  0  0  0  0  0  0  0
    1.7269   -0.0310    0.0056 N   0  0  0  0  0  0  0  0  0  0  0  0
    0.8388   -1.1649    0.2494 C   0  0  0  0  0  0  0  0  0  0  0  0
   -0.6005   -0.7777    0.0088 C   0  0  0  0  0  0  0  0  0  0  0  0
   -1.4565   -0.4860    1.0825 C   0  0  0  0  0  0  0  0  0  0  0  0
   -2.7898   -0.1154    0.8604 C   0  0  0  0  0  0  0  0  0  0  0  0
   -3.2820   -0.0266   -0.4407 C   0  0  0  0  0  0  0  0  0  0  0  0
   -2.4201   -0.3095   -1.5063 C   0  0  0  0  0  0  0  0  0  0  0  0
   -1.0958   -0.6763   -1.2971 C   0  0  0  0  0  0  0  0  0  0  0  0
   -2.8728   -0.2277   -2.7961 O   0  0  0  0  0  0  0  0  0  0  0  0
   -4.5581    0.3210   -0.8034 O   0  0  0  0  0  0  0  0  0  0  0  0
   -5.4602    0.6205    0.2552 C   0  0  0  0  0  0  0  0  0  0  0  0
    6.0943    1.4010    0.1173 H   0  0  0  0  0  0  0  0  0  0  0  0
    5.6169    0.2253    1.3542 H   0  0  0  0  0  0  0  0  0  0  0  0
    5.8258   -0.2923   -0.3306 H   0  0  0  0  0  0  0  0  0  0  0  0
    3.7016    1.6794    0.6651 H   0  0  0  0  0  0  0  0  0  0  0  0
    3.9082    1.1637   -1.0109 H   0  0  0  0  0  0  0  0  0  0  0  0
    3.4377   -1.2058   -0.3448 H   0  0  0  0  0  0  0  0  0  0  0  0
    3.2236   -0.6875    1.3392 H   0  0  0  0  0  0  0  0  0  0  0  0
    1.4324    0.7544    0.5841 H   0  0  0  0  0  0  0  0  0  0  0  0
    0.9498   -1.5285    1.2788 H   0  0  0  0  0  0  0  0  0  0  0  0
    1.0931   -2.0025   -0.4122 H   0  0  0  0  0  0  0  0  0  0  0  0
   -1.0887   -0.5456    2.1047 H   0  0  0  0  0  0  0  0  0  0  0  0
   -3.4100    0.0967    1.7243 H   0  0  0  0  0  0  0  0  0  0  0  0
   -0.4507   -0.8746   -2.1491 H   0  0  0  0  0  0  0  0  0  0  0  0
   -3.8057    0.0491   -2.7154 H   0  0  0  0  0  0  0  0  0  0  0  0
   -5.6134   -0.2501    0.9014 H   0  0  0  0  0  0  0  0  0  0  0  0
   -6.4256    0.8771   -0.1916 H   0  0  0  0  0  0  0  0  0  0  0  0
   -5.1192    1.4871    0.8312 H   0  0  0  0  0  0  0  0  0  0  0  0
  1  2  1  0
  2  3  1  0
  3  4  1  0
  4  5  1  0
  5  6  1  0
  6  7  2  0
  7  8  1  0
  8  9  2  0
  9 10  1  0
 10 11  2  0
 10 12  1  0
  9 13  1  0
 13 14  1  0
 11  6  1  0
  1 15  1  0
  1 16  1  0
  1 17  1  0
  2 18  1  0
  2 19  1  0
  3 20  1  0
  3 21  1  0
  4 22  1  0
  5 23  1  0
  5 24  1  0
  7 25  1  0
  8 26  1  0
 11 27  1  0
 12 28  1  0
 14 29  1  0
 14 30  1  0
 14 31  1  0
M  END
