
     RDKit          3D

 34 34  0  0  0  0  0  0  0  0999 V2000
    5.5387   -0.0787   -1.3573 C   0  0  0  0  0  0  0  0  0  0  0  0
    4.9983   -0.3023   -0.0600 O   0  0  0  0  0  0  0  0  0  0  0  0
    3.6761    0.0174    0.1140 C   0  0  0  0  0  0  0  0  0  0  0  0
    2.8202    0.5418   -0.8523 C   0  0  0  0  0  0  0  0  0  0  0  0
    1.4863    0.8204   -0.5276 C   0  0  0  0  0  0  0  0  0  0  0  0
    0.9890    0.5806    0.7640 C   0  0  0  0  0  0  0  0  0  0  0  0
    1.8508    0.0506    1.7306 C   0  0  0  0  0  0  0  0  0  0  0  0
    3.1735   -0.2215    1.3982 C   0  0  0  0  0  0  0  0  0  0  0  0
    3.9887   -0.7382    2.3699 O   0  0  0  0  0  0  0  0  0  0  0  0
   -0.4521    0.8838    1.0977 C   0  0  0  0  0  0  0  0  0  0  0  0
   -1.3525    0.0046    0.3530 N   0  0  0  0  0  0  0  0  0  0  0  0
   -2.7499    0.2577    0.7020 C   0  0  0  0  0  0  0  0  0  0  0  0
   -3.6968   -0.6789   -0.0723 C   0  0  0  0  0  0  0  0  0  0  0  0
   -5.1384   -0.4633    0.3939 C   0  0  0  0  0  0  0  0  0  0  0  0
   -3.6050   -0.4696   -1.5863 C   0  0  0  0  0  0  0  0  0  0  0  0
    5.0302   -0.6927   -2.1080 H   0  0  0  0  0  0  0  0  0  0  0  0
    6.5902   -0.3809   -1.3372 H   0  0  0  0  0  0  0  0  0  0  0  0
    5.5026    0.9831   -1.6223 H   0  0  0  0  0  0  0  0  0  0  0  0
    3.1492    0.7438   -1.8656 H   0  0  0  0  0  0  0  0  0  0  0  0
    0.8219    1.2198   -1.2925 H   0  0  0  0  0  0  0  0  0  0  0  0
    1.5041   -0.1534    2.7396 H   0  0  0  0  0  0  0  0  0  0  0  0
    4.8543   -0.8528    1.9316 H   0  0  0  0  0  0  0  0  0  0  0  0
   -0.6493    1.9348    0.8522 H   0  0  0  0  0  0  0  0  0  0  0  0
   -0.6135    0.7683    2.1767 H   0  0  0  0  0  0  0  0  0  0  0  0
   -1.1139   -0.9637    0.5666 H   0  0  0  0  0  0  0  0  0  0  0  0
   -2.8950    0.1030    1.7785 H   0  0  0  0  0  0  0  0  0  0  0  0
   -3.0062    1.3008    0.4786 H   0  0  0  0  0  0  0  0  0  0  0  0
   -3.4260   -1.7200    0.1471 H   0  0  0  0  0  0  0  0  0  0  0  0
   -5.8208   -1.1469   -0.1223 H   0  0  0  0  0  0  0  0  0  0  0  0
   -5.2314   -0.6492    1.4692 H   0  0  0  0  0  0  0  0  0  0  0  0
   -5.4715    0.5614    0.1965 H   0  0  0  0  0  0  0  0  0  0  0  0
   -3.8399    0.5651   -1.8583 H   0  0  0  0  0  0  0  0  0  0  0  0
   -4.3091   -1.1245   -2.1109 H   0  0  0  0  0  0  0  0  0  0  0  0
   -2.6027   -0.7004   -1.9611 H   0  0  0  0  0  0  0  0  0  0  0  0
  1  2  1  0
  2  3  1  0
  3  4  2  0
  4  5  1  0
  5  6  2  0
  6  7  1  0
  7  8  2  0
  8  9  1  0
  6 10  1  0
 10 11  1  0
 11 12  1  0
 12 13  1  0
 13 14  1  0
 13 15  1  0
  8  3  1  0
  1 16  1  0
  1 17  1  0
  1 18  1  0
  4 19  1  0
  5 20  1  0
  7 21  1  0
  9 22  1  0
 10 23  1  0
 10 24  1  0
 11 25  1  0
 12 26  1  0
 12 27  1  0
 13 28  1  0
 14 29  1  0
 14 30  1  0
 14 31  1  0
 15 32  1  0
 15 33  1  0
 15 34  1  0
M  END
