
     RDKit          3D

 37 37  0  0  0  0  0  0  0  0999 V2000
    5.9277   -0.8838    0.4627 C   0  0  0  0  0  0  0  0  0  0  0  0
    5.2833    0.3197    0.0613 O   0  0  0  0  0  0  0  0  0  0  0  0
    3.9521    0.2236   -0.2542 C   0  0  0  0  0  0  0  0  0  0  0  0
    3.1788   -0.9349   -0.2235 C   0  0  0  0  0  0  0  0  0  0  0  0
    1.8236   -0.8803   -0.5740 C   0  0  0  0  0  0  0  0  0  0  0  0
    1.2226    0.3291   -0.9602 C   0  0  0  0  0  0  0  0  0  0  0  0
    2.0018    1.4911   -0.9862 C   0  0  0  0  0  0  0  0  0  0  0  0
    3.3464    1.4258   -0.6372 C   0  0  0  0  0  0  0  0  0  0  0  0
    4.0788    2.5825   -0.6757 O   0  0  0  0  0  0  0  0  0  0  0  0
   -0.2402    0.3722   -1.3321 C   0  0  0  0  0  0  0  0  0  0  0  0
   -1.0786    0.0755   -0.1706 N   0  0  0  0  0  0  0  0  0  0  0  0
   -2.5006    0.1681   -0.5057 C   0  0  0  0  0  0  0  0  0  0  0  0
   -3.4370   -0.1915    0.6805 C   0  0  0  0  0  0  0  0  0  0  0  0
   -3.1830   -1.6314    1.1615 C   0  0  0  0  0  0  0  0  0  0  0  0
   -4.8952   -0.0854    0.1943 C   0  0  0  0  0  0  0  0  0  0  0  0
   -3.2442    0.7784    1.8599 C   0  0  0  0  0  0  0  0  0  0  0  0
    6.9734   -0.6457    0.6801 H   0  0  0  0  0  0  0  0  0  0  0  0
    5.4803   -1.2849    1.3781 H   0  0  0  0  0  0  0  0  0  0  0  0
    5.9158   -1.6255   -0.3429 H   0  0  0  0  0  0  0  0  0  0  0  0
    3.5894   -1.8948    0.0695 H   0  0  0  0  0  0  0  0  0  0  0  0
    1.2244   -1.7889   -0.5364 H   0  0  0  0  0  0  0  0  0  0  0  0
    1.5738    2.4469   -1.2745 H   0  0  0  0  0  0  0  0  0  0  0  0
    4.9768    2.3161   -0.3980 H   0  0  0  0  0  0  0  0  0  0  0  0
   -0.4147   -0.3593   -2.1309 H   0  0  0  0  0  0  0  0  0  0  0  0
   -0.4891    1.3604   -1.7385 H   0  0  0  0  0  0  0  0  0  0  0  0
   -0.8515    0.7420    0.5665 H   0  0  0  0  0  0  0  0  0  0  0  0
   -2.7294    1.1857   -0.8486 H   0  0  0  0  0  0  0  0  0  0  0  0
   -2.7163   -0.5104   -1.3416 H   0  0  0  0  0  0  0  0  0  0  0  0
   -3.8891   -1.9131    1.9510 H   0  0  0  0  0  0  0  0  0  0  0  0
   -2.1733   -1.7500    1.5693 H   0  0  0  0  0  0  0  0  0  0  0  0
   -3.2996   -2.3478    0.3406 H   0  0  0  0  0  0  0  0  0  0  0  0
   -5.6006   -0.3338    0.9953 H   0  0  0  0  0  0  0  0  0  0  0  0
   -5.1248    0.9300   -0.1481 H   0  0  0  0  0  0  0  0  0  0  0  0
   -5.0855   -0.7704   -0.6396 H   0  0  0  0  0  0  0  0  0  0  0  0
   -3.9737    0.5815    2.6540 H   0  0  0  0  0  0  0  0  0  0  0  0
   -2.2486    0.6848    2.3062 H   0  0  0  0  0  0  0  0  0  0  0  0
   -3.3741    1.8183    1.5402 H   0  0  0  0  0  0  0  0  0  0  0  0
  1  2  1  0
  2  3  1  0
  3  4  2  0
  4  5  1  0
  5  6  2  0
  6  7  1  0
  7  8  2  0
  8  9  1  0
  6 10  1  0
 10 11  1  0
 11 12  1  0
 12 13  1  0
 13 14  1  0
 13 15  1  0
 13 16  1  0
  8  3  1  0
  1 17  1  0
  1 18  1  0
  1 19  1  0
  4 20  1  0
  5 21  1  0
  7 22  1  0
  9 23  1  0
 10 24  1  0
 10 25  1  0
 11 26  1  0
 12 27  1  0
 12 28  1  0
 14 29  1  0
 14 30  1  0
 14 31  1  0
 15 32  1  0
 15 33  1  0
 15 34  1  0
 16 35  1  0
 16 36  1  0
 16 37  1  0
M  END
