
     RDKit          3D

116122  0  0  0  0  0  0  0  0999 V2000
   -5.6089    4.4491    2.7913 O   0  0  0  0  0  0  0  0  0  0  0  0
   -5.2872    3.6403    1.6560 C   0  0  0  0  0  0  0  0  0  0  0  0
   -4.6325    2.3190    2.0925 C   0  0  0  0  0  0  0  0  0  0  0  0
   -4.3524    1.5764    0.9013 O   0  0  0  0  0  0  0  0  0  0  0  0
   -3.8053    0.2884    1.1980 C   0  0  0  0  0  0  0  0  0  0  0  0
   -3.3642   -0.3668    0.0089 O   0  0  0  0  0  0  0  0  0  0  0  0
   -1.9877   -0.1919   -0.3121 C   0  0  0  0  0  0  0  0  0  0  0  0
   -1.5367    1.2727   -0.4527 C   0  0  0  0  0  0  0  0  0  0  0  0
   -0.0671    1.4235   -0.8896 C   0  0  0  0  0  0  0  0  0  0  0  0
    0.8770    0.4174   -0.1721 C   0  0  0  0  0  0  0  0  0  0  0  0
    0.2541   -1.0169   -0.1213 C   0  0  0  0  0  0  0  0  0  0  0  0
   -1.0721   -0.9330    0.6733 C   0  0  0  0  0  0  0  0  0  0  0  0
   -0.2668   -1.5430   -1.4797 C   0  0  0  0  0  0  0  0  0  0  0  0
   -1.6560   -0.9506   -1.5877 C   0  0  0  0  0  0  0  0  0  0  0  0
   -2.4720   -1.1356   -2.6354 C   0  0  0  0  0  0  0  0  0  0  0  0
    1.2121   -1.9824    0.5740 C   0  0  0  0  0  0  0  0  0  0  0  0
    2.5825   -1.9906   -0.0657 C   0  0  0  0  0  0  0  0  0  0  0  0
    3.3028   -0.6289   -0.0016 C   0  0  0  0  0  0  0  0  0  0  0  0
    2.4011    0.5167   -0.6214 C   0  0  0  0  0  0  0  0  0  0  0  0
    2.5595    0.4577   -2.1642 C   0  0  0  0  0  0  0  0  0  0  0  0
    2.9959    1.8908   -0.1972 C   0  0  0  0  0  0  0  0  0  0  0  0
    3.0071    2.1212    1.3095 C   0  0  0  0  0  0  0  0  0  0  0  0
    3.2330    0.8454    2.1269 C   0  0  0  0  0  0  0  0  0  0  0  0
    3.9977   -0.2699    1.3782 C   0  0  0  0  0  0  0  0  0  0  0  0
    4.1571   -1.4562    2.3601 C   0  0  0  0  0  0  0  0  0  0  0  0
    5.4530    0.2020    1.1484 C   0  0  0  0  0  0  0  0  0  0  0  0
    5.9283    1.2324    1.6052 O   0  0  0  0  0  0  0  0  0  0  0  0
    6.1671   -0.7194    0.4384 O   0  0  0  0  0  0  0  0  0  0  0  0
    7.5377   -0.3597    0.2145 C   0  0  0  0  0  0  0  0  0  0  0  0
    7.6468    0.6098   -0.8352 O   0  0  0  0  0  0  0  0  0  0  0  0
    8.9768    1.1767   -0.8864 C   0  0  0  0  0  0  0  0  0  0  0  0
    9.1345    1.8339   -2.2636 C   0  0  0  0  0  0  0  0  0  0  0  0
   10.3535    2.5703   -2.3267 O   0  0  0  0  0  0  0  0  0  0  0  0
   10.0851    0.1150   -0.6312 C   0  0  0  0  0  0  0  0  0  0  0  0
    9.5492   -1.2611   -1.0462 C   0  0  0  0  0  0  0  0  0  0  0  0
    8.3106   -1.6305   -0.2109 C   0  0  0  0  0  0  0  0  0  0  0  0
    7.5128   -2.5132   -1.0336 O   0  0  0  0  0  0  0  0  0  0  0  0
   10.5503   -2.2797   -0.9072 O   0  0  0  0  0  0  0  0  0  0  0  0
   10.3777    0.0803    0.7806 O   0  0  0  0  0  0  0  0  0  0  0  0
   -4.8612   -0.5743    1.9480 C   0  0  0  0  0  0  0  0  0  0  0  0
   -5.1036    0.1072    3.2979 C   0  0  0  0  0  0  0  0  0  0  0  0
   -5.5477    1.5632    3.0847 C   0  0  0  0  0  0  0  0  0  0  0  0
   -5.5493    2.2105    4.3663 O   0  0  0  0  0  0  0  0  0  0  0  0
   -3.9192    0.0748    4.1072 O   0  0  0  0  0  0  0  0  0  0  0  0
   -6.1574   -0.6697    1.3384 O   0  0  0  0  0  0  0  0  0  0  0  0
   -6.2105   -1.3068    0.0597 C   0  0  0  0  0  0  0  0  0  0  0  0
   -6.4219   -0.2773   -0.9126 O   0  0  0  0  0  0  0  0  0  0  0  0
   -7.0918   -0.7215   -2.1025 C   0  0  0  0  0  0  0  0  0  0  0  0
   -7.0083    0.4048   -3.1422 C   0  0  0  0  0  0  0  0  0  0  0  0
   -7.8867    0.1856   -4.2515 O   0  0  0  0  0  0  0  0  0  0  0  0
   -8.5425   -1.1600   -1.7874 C   0  0  0  0  0  0  0  0  0  0  0  0
   -8.6750   -1.6255   -0.3282 C   0  0  0  0  0  0  0  0  0  0  0  0
   -7.3947   -2.3135    0.1407 C   0  0  0  0  0  0  0  0  0  0  0  0
   -7.1697   -3.4619   -0.6996 O   0  0  0  0  0  0  0  0  0  0  0  0
   -9.7951   -2.5237   -0.2362 O   0  0  0  0  0  0  0  0  0  0  0  0
   -9.5091   -0.1143   -2.0162 O   0  0  0  0  0  0  0  0  0  0  0  0
   -6.0393    5.2487    2.4416 H   0  0  0  0  0  0  0  0  0  0  0  0
   -6.2107    3.4431    1.0971 H   0  0  0  0  0  0  0  0  0  0  0  0
   -4.6121    4.2051    0.9976 H   0  0  0  0  0  0  0  0  0  0  0  0
   -3.6863    2.5635    2.5943 H   0  0  0  0  0  0  0  0  0  0  0  0
   -2.9456    0.4236    1.8639 H   0  0  0  0  0  0  0  0  0  0  0  0
   -2.1878    1.8103   -1.1516 H   0  0  0  0  0  0  0  0  0  0  0  0
   -1.6571    1.7912    0.5055 H   0  0  0  0  0  0  0  0  0  0  0  0
   -0.0174    1.2949   -1.9795 H   0  0  0  0  0  0  0  0  0  0  0  0
    0.2463    2.4533   -0.6837 H   0  0  0  0  0  0  0  0  0  0  0  0
    0.8621    0.7514    0.8736 H   0  0  0  0  0  0  0  0  0  0  0  0
   -0.9443   -0.4050    1.6278 H   0  0  0  0  0  0  0  0  0  0  0  0
   -1.4621   -1.9320    0.9120 H   0  0  0  0  0  0  0  0  0  0  0  0
   -0.3406   -2.6385   -1.4747 H   0  0  0  0  0  0  0  0  0  0  0  0
    0.3462   -1.2407   -2.3297 H   0  0  0  0  0  0  0  0  0  0  0  0
   -2.1612   -1.7160   -3.4969 H   0  0  0  0  0  0  0  0  0  0  0  0
   -3.4732   -0.7132   -2.6402 H   0  0  0  0  0  0  0  0  0  0  0  0
    0.8005   -3.0028    0.5604 H   0  0  0  0  0  0  0  0  0  0  0  0
    1.2955   -1.7089    1.6296 H   0  0  0  0  0  0  0  0  0  0  0  0
    2.4772   -2.2932   -1.1173 H   0  0  0  0  0  0  0  0  0  0  0  0
    3.1961   -2.7796    0.3768 H   0  0  0  0  0  0  0  0  0  0  0  0
    4.1317   -0.7519   -0.7130 H   0  0  0  0  0  0  0  0  0  0  0  0
    2.2676   -0.5087   -2.5856 H   0  0  0  0  0  0  0  0  0  0  0  0
    1.9912    1.2477   -2.6743 H   0  0  0  0  0  0  0  0  0  0  0  0
    3.6128    0.6120   -2.4519 H   0  0  0  0  0  0  0  0  0  0  0  0
    2.4732    2.7183   -0.6951 H   0  0  0  0  0  0  0  0  0  0  0  0
    4.0323    1.9593   -0.5630 H   0  0  0  0  0  0  0  0  0  0  0  0
    3.7886    2.8570    1.5453 H   0  0  0  0  0  0  0  0  0  0  0  0
    2.0691    2.5881    1.6279 H   0  0  0  0  0  0  0  0  0  0  0  0
    3.7589    1.1256    3.0520 H   0  0  0  0  0  0  0  0  0  0  0  0
    2.2653    0.4579    2.4597 H   0  0  0  0  0  0  0  0  0  0  0  0
    4.7023   -2.2944    1.9127 H   0  0  0  0  0  0  0  0  0  0  0  0
    3.1947   -1.8237    2.7282 H   0  0  0  0  0  0  0  0  0  0  0  0
    4.7376   -1.1574    3.2461 H   0  0  0  0  0  0  0  0  0  0  0  0
    7.9603    0.0423    1.1490 H   0  0  0  0  0  0  0  0  0  0  0  0
    9.0487    1.9545   -0.1108 H   0  0  0  0  0  0  0  0  0  0  0  0
    9.1486    1.0741   -3.0513 H   0  0  0  0  0  0  0  0  0  0  0  0
    8.2937    2.5063   -2.4745 H   0  0  0  0  0  0  0  0  0  0  0  0
   10.1383    3.4939   -2.1062 H   0  0  0  0  0  0  0  0  0  0  0  0
   11.0293    0.3447   -1.1398 H   0  0  0  0  0  0  0  0  0  0  0  0
    9.2997   -1.2407   -2.1123 H   0  0  0  0  0  0  0  0  0  0  0  0
    8.5682   -2.2195    0.6765 H   0  0  0  0  0  0  0  0  0  0  0  0
    6.5977   -2.4098   -0.7221 H   0  0  0  0  0  0  0  0  0  0  0  0
   10.1051   -3.1200   -1.1141 H   0  0  0  0  0  0  0  0  0  0  0  0
   11.1165    0.7045    0.9243 H   0  0  0  0  0  0  0  0  0  0  0  0
   -4.4706   -1.5876    2.0956 H   0  0  0  0  0  0  0  0  0  0  0  0
   -5.8860   -0.4211    3.8608 H   0  0  0  0  0  0  0  0  0  0  0  0
   -6.5799    1.5645    2.7037 H   0  0  0  0  0  0  0  0  0  0  0  0
   -5.7267    3.1607    4.1748 H   0  0  0  0  0  0  0  0  0  0  0  0
   -4.1191    0.6929    4.8433 H   0  0  0  0  0  0  0  0  0  0  0  0
   -5.2884   -1.8468   -0.1842 H   0  0  0  0  0  0  0  0  0  0  0  0
   -6.5400   -1.5906   -2.4957 H   0  0  0  0  0  0  0  0  0  0  0  0
   -7.2393    1.3808   -2.6933 H   0  0  0  0  0  0  0  0  0  0  0  0
   -5.9828    0.4689   -3.5321 H   0  0  0  0  0  0  0  0  0  0  0  0
   -8.7896    0.3027   -3.8739 H   0  0  0  0  0  0  0  0  0  0  0  0
   -8.8276   -1.9588   -2.4841 H   0  0  0  0  0  0  0  0  0  0  0  0
   -8.9064   -0.7774    0.3271 H   0  0  0  0  0  0  0  0  0  0  0  0
   -7.5158   -2.6935    1.1648 H   0  0  0  0  0  0  0  0  0  0  0  0
   -7.2573   -4.2560   -0.1323 H   0  0  0  0  0  0  0  0  0  0  0  0
   -9.5493   -3.3267   -0.7370 H   0  0  0  0  0  0  0  0  0  0  0  0
  -10.3496   -0.4348   -1.6287 H   0  0  0  0  0  0  0  0  0  0  0  0
  1  2  1  0
  2  3  1  0
  3  4  1  0
  4  5  1  0
  5  6  1  0
  6  7  1  0
  7  8  1  0
  8  9  1  0
  9 10  1  0
 10 11  1  0
 11 12  1  0
 11 13  1  0
 13 14  1  0
 14 15  2  0
 11 16  1  0
 16 17  1  0
 17 18  1  0
 18 19  1  0
 19 20  1  0
 19 21  1  0
 21 22  1  0
 22 23  1  0
 23 24  1  0
 24 25  1  0
 24 26  1  0
 26 27  2  0
 26 28  1  0
 28 29  1  0
 29 30  1  0
 30 31  1  0
 31 32  1  0
 32 33  1  0
 31 34  1  0
 34 35  1  0
 35 36  1  0
 36 37  1  0
 35 38  1  0
 34 39  1  0
  5 40  1  0
 40 41  1  0
 41 42  1  0
 42 43  1  0
 41 44  1  0
 40 45  1  0
 45 46  1  0
 46 47  1  0
 47 48  1  0
 48 49  1  0
 49 50  1  0
 48 51  1  0
 51 52  1  0
 52 53  1  0
 53 54  1  0
 52 55  1  0
 51 56  1  0
 42  3  1  0
 53 46  1  0
 12  7  1  0
 24 18  1  0
 36 29  1  0
 14  7  1  0
 19 10  1  0
  1 57  1  0
  2 58  1  0
  2 59  1  0
  3 60  1  0
  5 61  1  0
  8 62  1  0
  8 63  1  0
  9 64  1  0
  9 65  1  0
 10 66  1  0
 12 67  1  0
 12 68  1  0
 13 69  1  0
 13 70  1  0
 15 71  1  0
 15 72  1  0
 16 73  1  0
 16 74  1  0
 17 75  1  0
 17 76  1  0
 18 77  1  0
 20 78  1  0
 20 79  1  0
 20 80  1  0
 21 81  1  0
 21 82  1  0
 22 83  1  0
 22 84  1  0
 23 85  1  0
 23 86  1  0
 25 87  1  0
 25 88  1  0
 25 89  1  0
 29 90  1  0
 31 91  1  0
 32 92  1  0
 32 93  1  0
 33 94  1  0
 34 95  1  0
 35 96  1  0
 36 97  1  0
 37 98  1  0
 38 99  1  0
 39100  1  0
 40101  1  0
 41102  1  0
 42103  1  0
 43104  1  0
 44105  1  0
 46106  1  0
 48107  1  0
 49108  1  0
 49109  1  0
 50110  1  0
 51111  1  0
 52112  1  0
 53113  1  0
 54114  1  0
 55115  1  0
 56116  1  0
M  END
