
     RDKit          3D

 34 36  0  0  0  0  0  0  0  0999 V2000
    5.7716   -0.6824   -0.7280 C   0  0  0  0  0  0  0  0  0  0  0  0
    4.9174   -1.1968    0.2875 O   0  0  0  0  0  0  0  0  0  0  0  0
    3.6437   -0.6908    0.3282 C   0  0  0  0  0  0  0  0  0  0  0  0
    3.1129    0.2780   -0.5210 C   0  0  0  0  0  0  0  0  0  0  0  0
    1.7867    0.7003   -0.3610 C   0  0  0  0  0  0  0  0  0  0  0  0
    0.9754    0.1625    0.6492 C   0  0  0  0  0  0  0  0  0  0  0  0
    1.5090   -0.8128    1.4986 C   0  0  0  0  0  0  0  0  0  0  0  0
    2.8268   -1.2241    1.3310 C   0  0  0  0  0  0  0  0  0  0  0  0
    3.3156   -2.1802    2.1806 O   0  0  0  0  0  0  0  0  0  0  0  0
   -0.4611    0.6085    0.8023 C   0  0  0  0  0  0  0  0  0  0  0  0
   -1.3945   -0.1100   -0.1794 C   0  0  0  0  0  0  0  0  0  0  0  0
   -1.2494    0.4706   -1.5038 O   0  0  0  0  0  0  0  0  0  0  0  0
   -2.4146    1.0038   -1.9746 C   0  0  0  0  0  0  0  0  0  0  0  0
   -2.5768    1.5698   -3.0364 O   0  0  0  0  0  0  0  0  0  0  0  0
   -3.4218    0.7631   -0.9527 C   0  0  0  0  0  0  0  0  0  0  0  0
   -2.8337    0.1103    0.1117 C   0  0  0  0  0  0  0  0  0  0  0  0
   -3.5902   -0.2441    1.2173 C   0  0  0  0  0  0  0  0  0  0  0  0
   -4.9497    0.0871    1.2253 C   0  0  0  0  0  0  0  0  0  0  0  0
   -5.5334    0.7584    0.1373 C   0  0  0  0  0  0  0  0  0  0  0  0
   -4.7632    1.1040   -0.9732 C   0  0  0  0  0  0  0  0  0  0  0  0
    5.9358    0.3925   -0.5984 H   0  0  0  0  0  0  0  0  0  0  0  0
    5.3788   -0.9065   -1.7253 H   0  0  0  0  0  0  0  0  0  0  0  0
    6.7410   -1.1810   -0.6324 H   0  0  0  0  0  0  0  0  0  0  0  0
    3.6953    0.7253   -1.3193 H   0  0  0  0  0  0  0  0  0  0  0  0
    1.3871    1.4524   -1.0404 H   0  0  0  0  0  0  0  0  0  0  0  0
    0.9132   -1.2572    2.2909 H   0  0  0  0  0  0  0  0  0  0  0  0
    4.2397   -2.3178    1.8940 H   0  0  0  0  0  0  0  0  0  0  0  0
   -0.5073    1.6963    0.6583 H   0  0  0  0  0  0  0  0  0  0  0  0
   -0.7740    0.4238    1.8380 H   0  0  0  0  0  0  0  0  0  0  0  0
   -1.1780   -1.1818   -0.2564 H   0  0  0  0  0  0  0  0  0  0  0  0
   -3.1494   -0.7681    2.0606 H   0  0  0  0  0  0  0  0  0  0  0  0
   -5.5651   -0.1794    2.0826 H   0  0  0  0  0  0  0  0  0  0  0  0
   -6.5923    1.0067    0.1612 H   0  0  0  0  0  0  0  0  0  0  0  0
   -5.1955    1.6194   -1.8250 H   0  0  0  0  0  0  0  0  0  0  0  0
  1  2  1  0
  2  3  1  0
  3  4  2  0
  4  5  1  0
  5  6  2  0
  6  7  1  0
  7  8  2  0
  8  9  1  0
  6 10  1  0
 10 11  1  0
 11 12  1  0
 12 13  1  0
 13 14  2  0
 13 15  1  0
 15 16  2  0
 16 17  1  0
 17 18  2  0
 18 19  1  0
 19 20  2  0
  8  3  1  0
 16 11  1  0
 20 15  1  0
  1 21  1  0
  1 22  1  0
  1 23  1  0
  4 24  1  0
  5 25  1  0
  7 26  1  0
  9 27  1  0
 10 28  1  0
 10 29  1  0
 11 30  1  0
 17 31  1  0
 18 32  1  0
 19 33  1  0
 20 34  1  0
M  END
