
     RDKit          3D

 39 41  0  0  0  0  0  0  0  0999 V2000
   -6.6054    0.1516    0.4072 C   0  0  0  0  0  0  0  0  0  0  0  0
   -5.5171   -0.0264    1.3064 O   0  0  0  0  0  0  0  0  0  0  0  0
   -4.2621    0.1933    0.7993 C   0  0  0  0  0  0  0  0  0  0  0  0
   -3.9538    0.5632   -0.5087 C   0  0  0  0  0  0  0  0  0  0  0  0
   -2.6183    0.7530   -0.8878 C   0  0  0  0  0  0  0  0  0  0  0  0
   -1.5767    0.5802    0.0354 C   0  0  0  0  0  0  0  0  0  0  0  0
   -1.8877    0.2041    1.3465 C   0  0  0  0  0  0  0  0  0  0  0  0
   -3.2161    0.0175    1.7117 C   0  0  0  0  0  0  0  0  0  0  0  0
   -3.4843   -0.3496    3.0033 O   0  0  0  0  0  0  0  0  0  0  0  0
   -0.1392    0.7653   -0.3839 C   0  0  0  0  0  0  0  0  0  0  0  0
    0.4802   -0.5502   -0.8662 C   0  0  0  0  0  0  0  0  0  0  0  0
    1.9299   -0.3737   -1.2736 C   0  0  0  0  0  0  0  0  0  0  0  0
    2.2019   -0.1568   -2.6364 C   0  0  0  0  0  0  0  0  0  0  0  0
    3.5054    0.0295   -3.0820 C   0  0  0  0  0  0  0  0  0  0  0  0
    4.5578    0.0068   -2.1720 C   0  0  0  0  0  0  0  0  0  0  0  0
    4.3239   -0.2001   -0.8049 C   0  0  0  0  0  0  0  0  0  0  0  0
    2.9996   -0.3928   -0.3335 C   0  0  0  0  0  0  0  0  0  0  0  0
    2.8255   -0.5931    1.0559 C   0  0  0  0  0  0  0  0  0  0  0  0
    3.9077   -0.6037    1.9398 C   0  0  0  0  0  0  0  0  0  0  0  0
    5.1960   -0.4148    1.4597 C   0  0  0  0  0  0  0  0  0  0  0  0
    5.4017   -0.2144    0.0963 C   0  0  0  0  0  0  0  0  0  0  0  0
   -6.5489   -0.5570   -0.4257 H   0  0  0  0  0  0  0  0  0  0  0  0
   -7.5291   -0.0537    0.9566 H   0  0  0  0  0  0  0  0  0  0  0  0
   -6.6549    1.1844    0.0467 H   0  0  0  0  0  0  0  0  0  0  0  0
   -4.7220    0.7117   -1.2598 H   0  0  0  0  0  0  0  0  0  0  0  0
   -2.3956    1.0388   -1.9140 H   0  0  0  0  0  0  0  0  0  0  0  0
   -1.1058    0.0557    2.0861 H   0  0  0  0  0  0  0  0  0  0  0  0
   -4.4577   -0.4223    3.0440 H   0  0  0  0  0  0  0  0  0  0  0  0
   -0.0855    1.5239   -1.1759 H   0  0  0  0  0  0  0  0  0  0  0  0
    0.4293    1.1818    0.4573 H   0  0  0  0  0  0  0  0  0  0  0  0
    0.3967   -1.3347   -0.1042 H   0  0  0  0  0  0  0  0  0  0  0  0
   -0.0923   -0.9373   -1.7205 H   0  0  0  0  0  0  0  0  0  0  0  0
    1.3908   -0.1327   -3.3613 H   0  0  0  0  0  0  0  0  0  0  0  0
    3.7027    0.1932   -4.1379 H   0  0  0  0  0  0  0  0  0  0  0  0
    5.5705    0.1548   -2.5407 H   0  0  0  0  0  0  0  0  0  0  0  0
    1.8351   -0.7450    1.4768 H   0  0  0  0  0  0  0  0  0  0  0  0
    3.7386   -0.7606    3.0019 H   0  0  0  0  0  0  0  0  0  0  0  0
    6.0407   -0.4227    2.1430 H   0  0  0  0  0  0  0  0  0  0  0  0
    6.4187   -0.0675   -0.2612 H   0  0  0  0  0  0  0  0  0  0  0  0
  1  2  1  0
  2  3  1  0
  3  4  2  0
  4  5  1  0
  5  6  2  0
  6  7  1  0
  7  8  2  0
  8  9  1  0
  6 10  1  0
 10 11  1  0
 11 12  1  0
 12 13  2  0
 13 14  1  0
 14 15  2  0
 15 16  1  0
 16 17  2  0
 17 18  1  0
 18 19  2  0
 19 20  1  0
 20 21  2  0
  8  3  1  0
 17 12  1  0
 21 16  1  0
  1 22  1  0
  1 23  1  0
  1 24  1  0
  4 25  1  0
  5 26  1  0
  7 27  1  0
  9 28  1  0
 10 29  1  0
 10 30  1  0
 11 31  1  0
 11 32  1  0
 13 33  1  0
 14 34  1  0
 15 35  1  0
 18 36  1  0
 19 37  1  0
 20 38  1  0
 21 39  1  0
M  END
