
     RDKit          3D

 39 41  0  0  0  0  0  0  0  0999 V2000
   -6.8705   -0.4033    0.8313 C   0  0  0  0  0  0  0  0  0  0  0  0
   -6.1366    0.3766   -0.1057 O   0  0  0  0  0  0  0  0  0  0  0  0
   -4.7865    0.1454   -0.1698 C   0  0  0  0  0  0  0  0  0  0  0  0
   -4.0687   -0.7697    0.5982 C   0  0  0  0  0  0  0  0  0  0  0  0
   -2.6843   -0.8983    0.4240 C   0  0  0  0  0  0  0  0  0  0  0  0
   -2.0022   -0.1187   -0.5216 C   0  0  0  0  0  0  0  0  0  0  0  0
   -2.7236    0.8031   -1.2878 C   0  0  0  0  0  0  0  0  0  0  0  0
   -4.0968    0.9232   -1.1063 C   0  0  0  0  0  0  0  0  0  0  0  0
   -4.7716    1.8344   -1.8740 O   0  0  0  0  0  0  0  0  0  0  0  0
   -0.5085   -0.2479   -0.6898 C   0  0  0  0  0  0  0  0  0  0  0  0
    0.2474    0.7400    0.2031 C   0  0  0  0  0  0  0  0  0  0  0  0
    1.7414    0.6050    0.0402 C   0  0  0  0  0  0  0  0  0  0  0  0
    2.4166    1.3391   -0.9396 C   0  0  0  0  0  0  0  0  0  0  0  0
    3.7965    1.1984   -1.1032 C   0  0  0  0  0  0  0  0  0  0  0  0
    4.5298    0.3176   -0.2939 C   0  0  0  0  0  0  0  0  0  0  0  0
    3.8566   -0.4331    0.6959 C   0  0  0  0  0  0  0  0  0  0  0  0
    2.4678   -0.2809    0.8490 C   0  0  0  0  0  0  0  0  0  0  0  0
    4.5909   -1.3160    1.5047 C   0  0  0  0  0  0  0  0  0  0  0  0
    5.9700   -1.4562    1.3400 C   0  0  0  0  0  0  0  0  0  0  0  0
    6.6325   -0.7163    0.3651 C   0  0  0  0  0  0  0  0  0  0  0  0
    5.9176    0.1652   -0.4471 C   0  0  0  0  0  0  0  0  0  0  0  0
   -7.9218   -0.1082    0.7601 H   0  0  0  0  0  0  0  0  0  0  0  0
   -6.5378   -0.2054    1.8556 H   0  0  0  0  0  0  0  0  0  0  0  0
   -6.8072   -1.4701    0.5926 H   0  0  0  0  0  0  0  0  0  0  0  0
   -4.5486   -1.3977    1.3408 H   0  0  0  0  0  0  0  0  0  0  0  0
   -2.1393   -1.6158    1.0345 H   0  0  0  0  0  0  0  0  0  0  0  0
   -2.2266    1.4282   -2.0246 H   0  0  0  0  0  0  0  0  0  0  0  0
   -5.7036    1.7551   -1.5923 H   0  0  0  0  0  0  0  0  0  0  0  0
   -0.2481   -0.0896   -1.7447 H   0  0  0  0  0  0  0  0  0  0  0  0
   -0.2048   -1.2786   -0.4641 H   0  0  0  0  0  0  0  0  0  0  0  0
   -0.0189    0.5856    1.2571 H   0  0  0  0  0  0  0  0  0  0  0  0
   -0.0507    1.7716   -0.0264 H   0  0  0  0  0  0  0  0  0  0  0  0
    1.8734    2.0272   -1.5838 H   0  0  0  0  0  0  0  0  0  0  0  0
    4.2964    1.7837   -1.8717 H   0  0  0  0  0  0  0  0  0  0  0  0
    1.9448   -0.8593    1.6082 H   0  0  0  0  0  0  0  0  0  0  0  0
    4.0912   -1.9025    2.2722 H   0  0  0  0  0  0  0  0  0  0  0  0
    6.5253   -2.1429    1.9733 H   0  0  0  0  0  0  0  0  0  0  0  0
    7.7062   -0.8241    0.2356 H   0  0  0  0  0  0  0  0  0  0  0  0
    6.4524    0.7349   -1.2036 H   0  0  0  0  0  0  0  0  0  0  0  0
  1  2  1  0
  2  3  1  0
  3  4  2  0
  4  5  1  0
  5  6  2  0
  6  7  1  0
  7  8  2  0
  8  9  1  0
  6 10  1  0
 10 11  1  0
 11 12  1  0
 12 13  2  0
 13 14  1  0
 14 15  2  0
 15 16  1  0
 16 17  2  0
 16 18  1  0
 18 19  2  0
 19 20  1  0
 20 21  2  0
  8  3  1  0
 17 12  1  0
 21 15  1  0
  1 22  1  0
  1 23  1  0
  1 24  1  0
  4 25  1  0
  5 26  1  0
  7 27  1  0
  9 28  1  0
 10 29  1  0
 10 30  1  0
 11 31  1  0
 11 32  1  0
 13 33  1  0
 14 34  1  0
 17 35  1  0
 18 36  1  0
 19 37  1  0
 20 38  1  0
 21 39  1  0
M  END
