
     RDKit          3D

 36 37  0  0  0  0  0  0  0  0999 V2000
    6.0108    0.7683    0.7738 C   0  0  0  0  0  0  0  0  0  0  0  0
    5.2117    0.1301   -0.2155 O   0  0  0  0  0  0  0  0  0  0  0  0
    3.8586    0.3382   -0.1368 C   0  0  0  0  0  0  0  0  0  0  0  0
    3.1960    1.1046    0.8204 C   0  0  0  0  0  0  0  0  0  0  0  0
    1.8009    1.2281    0.7773 C   0  0  0  0  0  0  0  0  0  0  0  0
    1.0529    0.5922   -0.2241 C   0  0  0  0  0  0  0  0  0  0  0  0
    1.7191   -0.1811   -1.1809 C   0  0  0  0  0  0  0  0  0  0  0  0
    3.1034   -0.2977   -1.1284 C   0  0  0  0  0  0  0  0  0  0  0  0
    3.7232   -1.0613   -2.0811 O   0  0  0  0  0  0  0  0  0  0  0  0
   -0.4509    0.7117   -0.2534 C   0  0  0  0  0  0  0  0  0  0  0  0
   -1.1218   -0.4197    0.5315 C   0  0  0  0  0  0  0  0  0  0  0  0
   -2.6311   -0.3176    0.4806 C   0  0  0  0  0  0  0  0  0  0  0  0
   -3.2811    0.4753    1.4431 C   0  0  0  0  0  0  0  0  0  0  0  0
   -4.6677    0.6184    1.4360 C   0  0  0  0  0  0  0  0  0  0  0  0
   -5.4253   -0.0272    0.4656 C   0  0  0  0  0  0  0  0  0  0  0  0
   -4.7960   -0.8133   -0.4993 C   0  0  0  0  0  0  0  0  0  0  0  0
   -3.3993   -0.9631   -0.5107 C   0  0  0  0  0  0  0  0  0  0  0  0
   -2.7710   -1.8323   -1.5658 C   0  0  0  0  0  0  0  0  0  0  0  0
    5.9183    1.8577    0.7136 H   0  0  0  0  0  0  0  0  0  0  0  0
    7.0558    0.5116    0.5752 H   0  0  0  0  0  0  0  0  0  0  0  0
    5.7632    0.4038    1.7763 H   0  0  0  0  0  0  0  0  0  0  0  0
    3.7279    1.6182    1.6138 H   0  0  0  0  0  0  0  0  0  0  0  0
    1.2996    1.8277    1.5347 H   0  0  0  0  0  0  0  0  0  0  0  0
    1.1701   -0.6934   -1.9662 H   0  0  0  0  0  0  0  0  0  0  0  0
    4.6740   -1.0065   -1.8637 H   0  0  0  0  0  0  0  0  0  0  0  0
   -0.7461    1.6876    0.1542 H   0  0  0  0  0  0  0  0  0  0  0  0
   -0.7919    0.7165   -1.2967 H   0  0  0  0  0  0  0  0  0  0  0  0
   -0.7959   -0.3949    1.5803 H   0  0  0  0  0  0  0  0  0  0  0  0
   -0.7954   -1.3987    0.1604 H   0  0  0  0  0  0  0  0  0  0  0  0
   -2.7038    0.9877    2.2099 H   0  0  0  0  0  0  0  0  0  0  0  0
   -5.1552    1.2324    2.1884 H   0  0  0  0  0  0  0  0  0  0  0  0
   -6.5066    0.0795    0.4584 H   0  0  0  0  0  0  0  0  0  0  0  0
   -5.4073   -1.3118   -1.2487 H   0  0  0  0  0  0  0  0  0  0  0  0
   -2.3569   -2.7375   -1.1109 H   0  0  0  0  0  0  0  0  0  0  0  0
   -3.5035   -2.1422   -2.3189 H   0  0  0  0  0  0  0  0  0  0  0  0
   -1.9789   -1.2914   -2.0923 H   0  0  0  0  0  0  0  0  0  0  0  0
  1  2  1  0
  2  3  1  0
  3  4  2  0
  4  5  1  0
  5  6  2  0
  6  7  1  0
  7  8  2  0
  8  9  1  0
  6 10  1  0
 10 11  1  0
 11 12  1  0
 12 13  2  0
 13 14  1  0
 14 15  2  0
 15 16  1  0
 16 17  2  0
 17 18  1  0
  8  3  1  0
 17 12  1  0
  1 19  1  0
  1 20  1  0
  1 21  1  0
  4 22  1  0
  5 23  1  0
  7 24  1  0
  9 25  1  0
 10 26  1  0
 10 27  1  0
 11 28  1  0
 11 29  1  0
 13 30  1  0
 14 31  1  0
 15 32  1  0
 16 33  1  0
 18 34  1  0
 18 35  1  0
 18 36  1  0
M  END
