
     RDKit          3D

 34 35  0  0  0  0  0  0  0  0999 V2000
   -4.6545    0.3526    1.4295 C   0  0  0  0  0  0  0  0  0  0  0  0
   -4.2183   -0.4532    0.3409 O   0  0  0  0  0  0  0  0  0  0  0  0
   -2.9776   -0.1691   -0.1702 C   0  0  0  0  0  0  0  0  0  0  0  0
   -2.1067    0.8206    0.2811 C   0  0  0  0  0  0  0  0  0  0  0  0
   -0.8636    0.9961   -0.3401 C   0  0  0  0  0  0  0  0  0  0  0  0
   -0.4758    0.1878   -1.4189 C   0  0  0  0  0  0  0  0  0  0  0  0
   -1.3501   -0.8079   -1.8680 C   0  0  0  0  0  0  0  0  0  0  0  0
   -2.5817   -0.9736   -1.2447 C   0  0  0  0  0  0  0  0  0  0  0  0
   -3.4130   -1.9580   -1.7088 O   0  0  0  0  0  0  0  0  0  0  0  0
    0.8774    0.3693   -2.0668 C   0  0  0  0  0  0  0  0  0  0  0  0
    1.9328   -0.6225   -1.5613 C   0  0  0  0  0  0  0  0  0  0  0  0
    2.3796   -0.3599   -0.1411 C   0  0  0  0  0  0  0  0  0  0  0  0
    1.8587   -1.1310    0.9090 C   0  0  0  0  0  0  0  0  0  0  0  0
    2.2488   -0.8930    2.2280 C   0  0  0  0  0  0  0  0  0  0  0  0
    3.1631    0.1190    2.5135 C   0  0  0  0  0  0  0  0  0  0  0  0
    3.6871    0.8969    1.4814 C   0  0  0  0  0  0  0  0  0  0  0  0
    3.2925    0.6554    0.1653 C   0  0  0  0  0  0  0  0  0  0  0  0
    3.7962    1.4173   -0.8516 O   0  0  0  0  0  0  0  0  0  0  0  0
   -4.7348    1.4043    1.1353 H   0  0  0  0  0  0  0  0  0  0  0  0
   -3.9977    0.2322    2.2974 H   0  0  0  0  0  0  0  0  0  0  0  0
   -5.6531    0.0108    1.7182 H   0  0  0  0  0  0  0  0  0  0  0  0
   -2.3544    1.4705    1.1129 H   0  0  0  0  0  0  0  0  0  0  0  0
   -0.1881    1.7646    0.0321 H   0  0  0  0  0  0  0  0  0  0  0  0
   -1.0799   -1.4556   -2.6972 H   0  0  0  0  0  0  0  0  0  0  0  0
   -4.2075   -1.8976   -1.1438 H   0  0  0  0  0  0  0  0  0  0  0  0
    1.2154    1.4045   -1.9323 H   0  0  0  0  0  0  0  0  0  0  0  0
    0.7575    0.2374   -3.1502 H   0  0  0  0  0  0  0  0  0  0  0  0
    2.8121   -0.5764   -2.2167 H   0  0  0  0  0  0  0  0  0  0  0  0
    1.5619   -1.6522   -1.6481 H   0  0  0  0  0  0  0  0  0  0  0  0
    1.1356   -1.9177    0.7027 H   0  0  0  0  0  0  0  0  0  0  0  0
    1.8357   -1.4977    3.0312 H   0  0  0  0  0  0  0  0  0  0  0  0
    3.4658    0.3019    3.5411 H   0  0  0  0  0  0  0  0  0  0  0  0
    4.3960    1.6830    1.7209 H   0  0  0  0  0  0  0  0  0  0  0  0
    4.4411    2.0412   -0.4809 H   0  0  0  0  0  0  0  0  0  0  0  0
  1  2  1  0
  2  3  1  0
  3  4  2  0
  4  5  1  0
  5  6  2  0
  6  7  1  0
  7  8  2  0
  8  9  1  0
  6 10  1  0
 10 11  1  0
 11 12  1  0
 12 13  2  0
 13 14  1  0
 14 15  2  0
 15 16  1  0
 16 17  2  0
 17 18  1  0
  8  3  1  0
 17 12  1  0
  1 19  1  0
  1 20  1  0
  1 21  1  0
  4 22  1  0
  5 23  1  0
  7 24  1  0
  9 25  1  0
 10 26  1  0
 10 27  1  0
 11 28  1  0
 11 29  1  0
 13 30  1  0
 14 31  1  0
 15 32  1  0
 16 33  1  0
 18 34  1  0
M  END
