
     RDKit          3D

 37 38  0  0  0  0  0  0  0  0999 V2000
    6.0566    0.1618    1.1744 C   0  0  0  0  0  0  0  0  0  0  0  0
    5.3439    0.8629    0.1619 O   0  0  0  0  0  0  0  0  0  0  0  0
    4.0177    0.5451    0.0165 C   0  0  0  0  0  0  0  0  0  0  0  0
    3.3067   -0.3904    0.7659 C   0  0  0  0  0  0  0  0  0  0  0  0
    1.9482   -0.6109    0.5047 C   0  0  0  0  0  0  0  0  0  0  0  0
    1.2858    0.0963   -0.5096 C   0  0  0  0  0  0  0  0  0  0  0  0
    1.9992    1.0391   -1.2569 C   0  0  0  0  0  0  0  0  0  0  0  0
    3.3470    1.2504   -0.9892 C   0  0  0  0  0  0  0  0  0  0  0  0
    4.0165    2.1794   -1.7404 O   0  0  0  0  0  0  0  0  0  0  0  0
   -0.1828   -0.1356   -0.7682 C   0  0  0  0  0  0  0  0  0  0  0  0
   -1.0595    0.7180    0.1526 C   0  0  0  0  0  0  0  0  0  0  0  0
   -2.5329    0.4926   -0.1088 C   0  0  0  0  0  0  0  0  0  0  0  0
   -3.2259    1.3949   -0.9328 C   0  0  0  0  0  0  0  0  0  0  0  0
   -4.5793    1.2097   -1.2065 C   0  0  0  0  0  0  0  0  0  0  0  0
   -5.2522    0.1200   -0.6633 C   0  0  0  0  0  0  0  0  0  0  0  0
   -4.5737   -0.7888    0.1530 C   0  0  0  0  0  0  0  0  0  0  0  0
   -3.2147   -0.6133    0.4344 C   0  0  0  0  0  0  0  0  0  0  0  0
   -2.4639   -1.4532    1.2156 O   0  0  0  0  0  0  0  0  0  0  0  0
   -3.1220   -2.5755    1.7880 C   0  0  0  0  0  0  0  0  0  0  0  0
    7.0902    0.5210    1.1643 H   0  0  0  0  0  0  0  0  0  0  0  0
    6.0760   -0.9139    0.9708 H   0  0  0  0  0  0  0  0  0  0  0  0
    5.6414    0.3707    2.1659 H   0  0  0  0  0  0  0  0  0  0  0  0
    3.7713   -0.9645    1.5599 H   0  0  0  0  0  0  0  0  0  0  0  0
    1.4039   -1.3409    1.1014 H   0  0  0  0  0  0  0  0  0  0  0  0
    1.5156    1.6102   -2.0445 H   0  0  0  0  0  0  0  0  0  0  0  0
    4.9296    2.1668   -1.3938 H   0  0  0  0  0  0  0  0  0  0  0  0
   -0.4083    0.0857   -1.8198 H   0  0  0  0  0  0  0  0  0  0  0  0
   -0.4039   -1.2031   -0.6404 H   0  0  0  0  0  0  0  0  0  0  0  0
   -0.8381    0.5108    1.2077 H   0  0  0  0  0  0  0  0  0  0  0  0
   -0.8223    1.7817    0.0160 H   0  0  0  0  0  0  0  0  0  0  0  0
   -2.7099    2.2491   -1.3662 H   0  0  0  0  0  0  0  0  0  0  0  0
   -5.1069    1.9148   -1.8434 H   0  0  0  0  0  0  0  0  0  0  0  0
   -6.3081   -0.0259   -0.8759 H   0  0  0  0  0  0  0  0  0  0  0  0
   -5.1374   -1.6252    0.5520 H   0  0  0  0  0  0  0  0  0  0  0  0
   -2.3851   -3.1292    2.3778 H   0  0  0  0  0  0  0  0  0  0  0  0
   -3.9219   -2.2612    2.4665 H   0  0  0  0  0  0  0  0  0  0  0  0
   -3.5004   -3.2494    1.0124 H   0  0  0  0  0  0  0  0  0  0  0  0
  1  2  1  0
  2  3  1  0
  3  4  2  0
  4  5  1  0
  5  6  2  0
  6  7  1  0
  7  8  2  0
  8  9  1  0
  6 10  1  0
 10 11  1  0
 11 12  1  0
 12 13  2  0
 13 14  1  0
 14 15  2  0
 15 16  1  0
 16 17  2  0
 17 18  1  0
 18 19  1  0
  8  3  1  0
 17 12  1  0
  1 20  1  0
  1 21  1  0
  1 22  1  0
  4 23  1  0
  5 24  1  0
  7 25  1  0
  9 26  1  0
 10 27  1  0
 10 28  1  0
 11 29  1  0
 11 30  1  0
 13 31  1  0
 14 32  1  0
 15 33  1  0
 16 34  1  0
 19 35  1  0
 19 36  1  0
 19 37  1  0
M  END
