
     RDKit          3D

 37 38  0  0  0  0  0  0  0  0999 V2000
    5.9124   -0.6903    1.1084 C   0  0  0  0  0  0  0  0  0  0  0  0
    5.2422    0.4807    0.6560 O   0  0  0  0  0  0  0  0  0  0  0  0
    3.9175    0.3390    0.3304 C   0  0  0  0  0  0  0  0  0  0  0  0
    3.1699   -0.8346    0.4089 C   0  0  0  0  0  0  0  0  0  0  0  0
    1.8182   -0.8297    0.0417 C   0  0  0  0  0  0  0  0  0  0  0  0
    1.1995    0.3451   -0.4120 C   0  0  0  0  0  0  0  0  0  0  0  0
    1.9489    1.5235   -0.4840 C   0  0  0  0  0  0  0  0  0  0  0  0
    3.2897    1.5073   -0.1167 C   0  0  0  0  0  0  0  0  0  0  0  0
    3.9958    2.6777   -0.2008 O   0  0  0  0  0  0  0  0  0  0  0  0
   -0.2619    0.3387   -0.7843 C   0  0  0  0  0  0  0  0  0  0  0  0
   -1.1559    0.5753    0.4372 C   0  0  0  0  0  0  0  0  0  0  0  0
   -2.6255    0.4400    0.0954 C   0  0  0  0  0  0  0  0  0  0  0  0
   -3.2708    1.5396   -0.4993 C   0  0  0  0  0  0  0  0  0  0  0  0
   -4.6145    1.4734   -0.8638 C   0  0  0  0  0  0  0  0  0  0  0  0
   -5.3347    0.3053   -0.6440 C   0  0  0  0  0  0  0  0  0  0  0  0
   -4.7114   -0.7957   -0.0574 C   0  0  0  0  0  0  0  0  0  0  0  0
   -3.3580   -0.7460    0.3237 C   0  0  0  0  0  0  0  0  0  0  0  0
   -2.7394   -1.9770    0.9416 C   0  0  0  0  0  0  0  0  0  0  0  0
   -1.8413   -2.6000    0.0329 O   0  0  0  0  0  0  0  0  0  0  0  0
    6.9507   -0.4188    1.3217 H   0  0  0  0  0  0  0  0  0  0  0  0
    5.9231   -1.4636    0.3332 H   0  0  0  0  0  0  0  0  0  0  0  0
    5.4689   -1.0649    2.0368 H   0  0  0  0  0  0  0  0  0  0  0  0
    3.5997   -1.7695    0.7512 H   0  0  0  0  0  0  0  0  0  0  0  0
    1.2443   -1.7531    0.1138 H   0  0  0  0  0  0  0  0  0  0  0  0
    1.4998    2.4528   -0.8228 H   0  0  0  0  0  0  0  0  0  0  0  0
    4.8969    2.4452    0.0965 H   0  0  0  0  0  0  0  0  0  0  0  0
   -0.4487    1.1051   -1.5480 H   0  0  0  0  0  0  0  0  0  0  0  0
   -0.5025   -0.6162   -1.2676 H   0  0  0  0  0  0  0  0  0  0  0  0
   -0.8850   -0.1032    1.2531 H   0  0  0  0  0  0  0  0  0  0  0  0
   -0.9765    1.5808    0.8422 H   0  0  0  0  0  0  0  0  0  0  0  0
   -2.7215    2.4614   -0.6834 H   0  0  0  0  0  0  0  0  0  0  0  0
   -5.0967    2.3336   -1.3206 H   0  0  0  0  0  0  0  0  0  0  0  0
   -6.3821    0.2502   -0.9289 H   0  0  0  0  0  0  0  0  0  0  0  0
   -5.2946   -1.7008    0.1027 H   0  0  0  0  0  0  0  0  0  0  0  0
   -2.2111   -1.7348    1.8687 H   0  0  0  0  0  0  0  0  0  0  0  0
   -3.5083   -2.7119    1.2036 H   0  0  0  0  0  0  0  0  0  0  0  0
   -2.1370   -2.3650   -0.8639 H   0  0  0  0  0  0  0  0  0  0  0  0
  1  2  1  0
  2  3  1  0
  3  4  2  0
  4  5  1  0
  5  6  2  0
  6  7  1  0
  7  8  2  0
  8  9  1  0
  6 10  1  0
 10 11  1  0
 11 12  1  0
 12 13  2  0
 13 14  1  0
 14 15  2  0
 15 16  1  0
 16 17  2  0
 17 18  1  0
 18 19  1  0
  8  3  1  0
 17 12  1  0
  1 20  1  0
  1 21  1  0
  1 22  1  0
  4 23  1  0
  5 24  1  0
  7 25  1  0
  9 26  1  0
 10 27  1  0
 10 28  1  0
 11 29  1  0
 11 30  1  0
 13 31  1  0
 14 32  1  0
 15 33  1  0
 16 34  1  0
 18 35  1  0
 18 36  1  0
 19 37  1  0
M  END
