
     RDKit          3D

 39 40  0  0  0  0  0  0  0  0999 V2000
   -5.8048    0.9647    1.0240 C   0  0  0  0  0  0  0  0  0  0  0  0
   -4.8517    0.5202    0.0580 O   0  0  0  0  0  0  0  0  0  0  0  0
   -3.5674    0.5432    0.5001 C   0  0  0  0  0  0  0  0  0  0  0  0
   -3.2021    0.9013    1.6068 O   0  0  0  0  0  0  0  0  0  0  0  0
   -2.6657    0.0342   -0.5715 C   0  0  0  0  0  0  0  0  0  0  0  0
   -2.9637    0.3579   -1.9083 C   0  0  0  0  0  0  0  0  0  0  0  0
   -2.1449   -0.0822   -2.9481 C   0  0  0  0  0  0  0  0  0  0  0  0
   -1.0197   -0.8475   -2.6644 C   0  0  0  0  0  0  0  0  0  0  0  0
   -0.7123   -1.1733   -1.3431 C   0  0  0  0  0  0  0  0  0  0  0  0
   -1.5233   -0.7393   -0.2765 C   0  0  0  0  0  0  0  0  0  0  0  0
   -1.1219   -1.1353    1.1307 C   0  0  0  0  0  0  0  0  0  0  0  0
   -0.2121   -0.1153    1.8320 C   0  0  0  0  0  0  0  0  0  0  0  0
    1.1925   -0.0702    1.2752 C   0  0  0  0  0  0  0  0  0  0  0  0
    1.5917    0.9781    0.4328 C   0  0  0  0  0  0  0  0  0  0  0  0
    2.8850    1.0180   -0.1039 C   0  0  0  0  0  0  0  0  0  0  0  0
    3.7958    0.0070    0.1962 C   0  0  0  0  0  0  0  0  0  0  0  0
    3.3893   -1.0357    1.0362 C   0  0  0  0  0  0  0  0  0  0  0  0
    2.1088   -1.0842    1.5754 C   0  0  0  0  0  0  0  0  0  0  0  0
    4.2589   -2.0467    1.3470 O   0  0  0  0  0  0  0  0  0  0  0  0
    5.0867   -0.0835   -0.2577 O   0  0  0  0  0  0  0  0  0  0  0  0
    5.5399    0.9745   -1.0944 C   0  0  0  0  0  0  0  0  0  0  0  0
   -5.7870    0.3174    1.9064 H   0  0  0  0  0  0  0  0  0  0  0  0
   -6.7985    0.9057    0.5715 H   0  0  0  0  0  0  0  0  0  0  0  0
   -5.6121    2.0057    1.3018 H   0  0  0  0  0  0  0  0  0  0  0  0
   -3.8356    0.9626   -2.1487 H   0  0  0  0  0  0  0  0  0  0  0  0
   -2.3852    0.1737   -3.9768 H   0  0  0  0  0  0  0  0  0  0  0  0
   -0.3763   -1.1923   -3.4703 H   0  0  0  0  0  0  0  0  0  0  0  0
    0.1779   -1.7697   -1.1448 H   0  0  0  0  0  0  0  0  0  0  0  0
   -0.6341   -2.1191    1.0999 H   0  0  0  0  0  0  0  0  0  0  0  0
   -2.0230   -1.2991    1.7332 H   0  0  0  0  0  0  0  0  0  0  0  0
   -0.1444   -0.3741    2.8967 H   0  0  0  0  0  0  0  0  0  0  0  0
   -0.6498    0.8892    1.7976 H   0  0  0  0  0  0  0  0  0  0  0  0
    0.8896    1.7714    0.1816 H   0  0  0  0  0  0  0  0  0  0  0  0
    3.1406    1.8497   -0.7511 H   0  0  0  0  0  0  0  0  0  0  0  0
    1.8341   -1.9109    2.2245 H   0  0  0  0  0  0  0  0  0  0  0  0
    5.0861   -1.8143    0.8822 H   0  0  0  0  0  0  0  0  0  0  0  0
    6.5807    0.7665   -1.3608 H   0  0  0  0  0  0  0  0  0  0  0  0
    4.9612    1.0183   -2.0229 H   0  0  0  0  0  0  0  0  0  0  0  0
    5.5167    1.9336   -0.5665 H   0  0  0  0  0  0  0  0  0  0  0  0
  1  2  1  0
  2  3  1  0
  3  4  2  0
  3  5  1  0
  5  6  2  0
  6  7  1  0
  7  8  2  0
  8  9  1  0
  9 10  2  0
 10 11  1  0
 11 12  1  0
 12 13  1  0
 13 14  2  0
 14 15  1  0
 15 16  2  0
 16 17  1  0
 17 18  2  0
 17 19  1  0
 16 20  1  0
 20 21  1  0
 10  5  1  0
 18 13  1  0
  1 22  1  0
  1 23  1  0
  1 24  1  0
  6 25  1  0
  7 26  1  0
  8 27  1  0
  9 28  1  0
 11 29  1  0
 11 30  1  0
 12 31  1  0
 12 32  1  0
 14 33  1  0
 15 34  1  0
 18 35  1  0
 19 36  1  0
 21 37  1  0
 21 38  1  0
 21 39  1  0
M  END
