
     RDKit          3D

 42 43  0  0  0  0  0  0  0  0999 V2000
    6.4649   -0.8356   -1.4430 C   0  0  0  0  0  0  0  0  0  0  0  0
    5.3361   -0.1625   -1.9884 O   0  0  0  0  0  0  0  0  0  0  0  0
    4.2039   -0.1414   -1.2151 C   0  0  0  0  0  0  0  0  0  0  0  0
    4.0534   -0.7209    0.0435 C   0  0  0  0  0  0  0  0  0  0  0  0
    2.8309   -0.6199    0.7208 C   0  0  0  0  0  0  0  0  0  0  0  0
    1.7474    0.0645    0.1514 C   0  0  0  0  0  0  0  0  0  0  0  0
    1.8985    0.6411   -1.1144 C   0  0  0  0  0  0  0  0  0  0  0  0
    3.1154    0.5342   -1.7780 C   0  0  0  0  0  0  0  0  0  0  0  0
    3.2289    1.1112   -3.0145 O   0  0  0  0  0  0  0  0  0  0  0  0
    0.4270    0.1531    0.8757 C   0  0  0  0  0  0  0  0  0  0  0  0
   -0.5109   -0.9917    0.4802 C   0  0  0  0  0  0  0  0  0  0  0  0
   -1.8528   -0.8853    1.1747 C   0  0  0  0  0  0  0  0  0  0  0  0
   -2.0285   -1.6222    2.3627 C   0  0  0  0  0  0  0  0  0  0  0  0
   -3.2284   -1.5791    3.0691 C   0  0  0  0  0  0  0  0  0  0  0  0
   -4.2746   -0.7971    2.6005 C   0  0  0  0  0  0  0  0  0  0  0  0
   -4.1170   -0.0551    1.4299 C   0  0  0  0  0  0  0  0  0  0  0  0
   -2.9100   -0.0739    0.7006 C   0  0  0  0  0  0  0  0  0  0  0  0
   -2.8001    0.7619   -0.5709 C   0  0  0  0  0  0  0  0  0  0  0  0
   -3.7149    0.2155   -1.6706 C   0  0  0  0  0  0  0  0  0  0  0  0
   -3.0829    2.2464   -0.3130 C   0  0  0  0  0  0  0  0  0  0  0  0
    6.8000   -0.3576   -0.5165 H   0  0  0  0  0  0  0  0  0  0  0  0
    6.2530   -1.8985   -1.2870 H   0  0  0  0  0  0  0  0  0  0  0  0
    7.2802   -0.7619   -2.1691 H   0  0  0  0  0  0  0  0  0  0  0  0
    4.8607   -1.2588    0.5285 H   0  0  0  0  0  0  0  0  0  0  0  0
    2.7300   -1.0812    1.7014 H   0  0  0  0  0  0  0  0  0  0  0  0
    1.0775    1.1722   -1.5881 H   0  0  0  0  0  0  0  0  0  0  0  0
    4.1458    0.9225   -3.2936 H   0  0  0  0  0  0  0  0  0  0  0  0
    0.6035    0.1416    1.9595 H   0  0  0  0  0  0  0  0  0  0  0  0
   -0.0314    1.1281    0.6671 H   0  0  0  0  0  0  0  0  0  0  0  0
   -0.0445   -1.9532    0.7364 H   0  0  0  0  0  0  0  0  0  0  0  0
   -0.6528   -1.0426   -0.6060 H   0  0  0  0  0  0  0  0  0  0  0  0
   -1.2207   -2.2429    2.7456 H   0  0  0  0  0  0  0  0  0  0  0  0
   -3.3450   -2.1577    3.9811 H   0  0  0  0  0  0  0  0  0  0  0  0
   -5.2154   -0.7622    3.1431 H   0  0  0  0  0  0  0  0  0  0  0  0
   -4.9575    0.5442    1.0860 H   0  0  0  0  0  0  0  0  0  0  0  0
   -1.7792    0.7192   -0.9604 H   0  0  0  0  0  0  0  0  0  0  0  0
   -4.7731    0.2863   -1.3967 H   0  0  0  0  0  0  0  0  0  0  0  0
   -3.4926   -0.8375   -1.8763 H   0  0  0  0  0  0  0  0  0  0  0  0
   -3.5746    0.7754   -2.6016 H   0  0  0  0  0  0  0  0  0  0  0  0
   -2.8922    2.8344   -1.2175 H   0  0  0  0  0  0  0  0  0  0  0  0
   -4.1221    2.4263   -0.0185 H   0  0  0  0  0  0  0  0  0  0  0  0
   -2.4361    2.6350    0.4815 H   0  0  0  0  0  0  0  0  0  0  0  0
  1  2  1  0
  2  3  1  0
  3  4  2  0
  4  5  1  0
  5  6  2  0
  6  7  1  0
  7  8  2  0
  8  9  1  0
  6 10  1  0
 10 11  1  0
 11 12  1  0
 12 13  2  0
 13 14  1  0
 14 15  2  0
 15 16  1  0
 16 17  2  0
 17 18  1  0
 18 19  1  0
 18 20  1  0
  8  3  1  0
 17 12  1  0
  1 21  1  0
  1 22  1  0
  1 23  1  0
  4 24  1  0
  5 25  1  0
  7 26  1  0
  9 27  1  0
 10 28  1  0
 10 29  1  0
 11 30  1  0
 11 31  1  0
 13 32  1  0
 14 33  1  0
 15 34  1  0
 16 35  1  0
 18 36  1  0
 19 37  1  0
 19 38  1  0
 19 39  1  0
 20 40  1  0
 20 41  1  0
 20 42  1  0
M  END
