
     RDKit          3D

 36 37  0  0  0  0  0  0  0  0999 V2000
    5.7896    1.3351   -0.9972 C   0  0  0  0  0  0  0  0  0  0  0  0
    5.2436    0.1287   -0.4765 O   0  0  0  0  0  0  0  0  0  0  0  0
    3.9015    0.1382   -0.1939 C   0  0  0  0  0  0  0  0  0  0  0  0
    3.0277    1.2082   -0.3770 C   0  0  0  0  0  0  0  0  0  0  0  0
    1.6744    1.0720   -0.0428 C   0  0  0  0  0  0  0  0  0  0  0  0
    1.1794   -0.1313    0.4818 C   0  0  0  0  0  0  0  0  0  0  0  0
    2.0558   -1.2063    0.6595 C   0  0  0  0  0  0  0  0  0  0  0  0
    3.3972   -1.0605    0.3239 C   0  0  0  0  0  0  0  0  0  0  0  0
    4.2295   -2.1320    0.5112 O   0  0  0  0  0  0  0  0  0  0  0  0
   -0.2848   -0.2670    0.8180 C   0  0  0  0  0  0  0  0  0  0  0  0
   -1.1142   -0.6371   -0.4157 C   0  0  0  0  0  0  0  0  0  0  0  0
   -2.5922   -0.7202   -0.1003 C   0  0  0  0  0  0  0  0  0  0  0  0
   -3.1045   -1.9684    0.3056 C   0  0  0  0  0  0  0  0  0  0  0  0
   -4.4556   -2.1291    0.6119 C   0  0  0  0  0  0  0  0  0  0  0  0
   -5.3210   -1.0454    0.5222 C   0  0  0  0  0  0  0  0  0  0  0  0
   -4.8333    0.2014    0.1295 C   0  0  0  0  0  0  0  0  0  0  0  0
   -3.4727    0.3802   -0.1827 C   0  0  0  0  0  0  0  0  0  0  0  0
   -3.0009    1.7416   -0.5709 C   0  0  0  0  0  0  0  0  0  0  0  0
   -1.8672    2.1778   -0.5128 O   0  0  0  0  0  0  0  0  0  0  0  0
   -4.0018    2.5111   -1.0414 O   0  0  0  0  0  0  0  0  0  0  0  0
    6.8586    1.1722   -1.1648 H   0  0  0  0  0  0  0  0  0  0  0  0
    5.3367    1.5895   -1.9611 H   0  0  0  0  0  0  0  0  0  0  0  0
    5.6865    2.1569   -0.2809 H   0  0  0  0  0  0  0  0  0  0  0  0
    3.3580    2.1602   -0.7776 H   0  0  0  0  0  0  0  0  0  0  0  0
    0.9998    1.9140   -0.1965 H   0  0  0  0  0  0  0  0  0  0  0  0
    1.7054   -2.1548    1.0562 H   0  0  0  0  0  0  0  0  0  0  0  0
    5.1071   -1.8169    0.2200 H   0  0  0  0  0  0  0  0  0  0  0  0
   -0.6378    0.6698    1.2670 H   0  0  0  0  0  0  0  0  0  0  0  0
   -0.4115   -1.0273    1.6002 H   0  0  0  0  0  0  0  0  0  0  0  0
   -0.9405    0.0559   -1.2469 H   0  0  0  0  0  0  0  0  0  0  0  0
   -0.7767   -1.6084   -0.8044 H   0  0  0  0  0  0  0  0  0  0  0  0
   -2.4444   -2.8313    0.3831 H   0  0  0  0  0  0  0  0  0  0  0  0
   -4.8307   -3.1020    0.9203 H   0  0  0  0  0  0  0  0  0  0  0  0
   -6.3746   -1.1670    0.7607 H   0  0  0  0  0  0  0  0  0  0  0  0
   -5.5273    1.0377    0.0762 H   0  0  0  0  0  0  0  0  0  0  0  0
   -3.5592    3.3547   -1.2711 H   0  0  0  0  0  0  0  0  0  0  0  0
  1  2  1  0
  2  3  1  0
  3  4  2  0
  4  5  1  0
  5  6  2  0
  6  7  1  0
  7  8  2  0
  8  9  1  0
  6 10  1  0
 10 11  1  0
 11 12  1  0
 12 13  2  0
 13 14  1  0
 14 15  2  0
 15 16  1  0
 16 17  2  0
 17 18  1  0
 18 19  2  0
 18 20  1  0
  8  3  1  0
 17 12  1  0
  1 21  1  0
  1 22  1  0
  1 23  1  0
  4 24  1  0
  5 25  1  0
  7 26  1  0
  9 27  1  0
 10 28  1  0
 10 29  1  0
 11 30  1  0
 11 31  1  0
 13 32  1  0
 14 33  1  0
 15 34  1  0
 16 35  1  0
 20 36  1  0
M  END
