
     RDKit          3D

 95100  0  0  0  0  0  0  0  0999 V2000
    3.9084   -4.7648    0.4060 O   0  0  0  0  0  0  0  0  0  0  0  0
    2.5229   -5.0967    0.2553 C   0  0  0  0  0  0  0  0  0  0  0  0
    1.7269   -3.9414   -0.3728 C   0  0  0  0  0  0  0  0  0  0  0  0
    1.7392   -2.8377    0.5486 O   0  0  0  0  0  0  0  0  0  0  0  0
    2.2367   -1.5959    0.0410 C   0  0  0  0  0  0  0  0  0  0  0  0
    1.3166   -0.9946   -0.8646 O   0  0  0  0  0  0  0  0  0  0  0  0
    0.1440   -0.3928   -0.3320 C   0  0  0  0  0  0  0  0  0  0  0  0
   -0.4541   -1.0027    0.9546 C   0  0  0  0  0  0  0  0  0  0  0  0
   -1.7458   -0.3085    1.4133 C   0  0  0  0  0  0  0  0  0  0  0  0
   -2.7203   -0.0560    0.2397 C   0  0  0  0  0  0  0  0  0  0  0  0
   -1.9733    0.5443   -0.9999 C   0  0  0  0  0  0  0  0  0  0  0  0
   -0.9119   -0.4822   -1.4427 C   0  0  0  0  0  0  0  0  0  0  0  0
   -1.0532    1.7489   -0.6766 C   0  0  0  0  0  0  0  0  0  0  0  0
    0.2543    1.1203   -0.2291 C   0  0  0  0  0  0  0  0  0  0  0  0
    1.3210    1.8420    0.1427 C   0  0  0  0  0  0  0  0  0  0  0  0
   -2.9333    0.8202   -2.1643 C   0  0  0  0  0  0  0  0  0  0  0  0
   -4.2053    1.5580   -1.7606 C   0  0  0  0  0  0  0  0  0  0  0  0
   -4.9582    0.8064   -0.6428 C   0  0  0  0  0  0  0  0  0  0  0  0
   -4.0783    0.6590    0.6467 C   0  0  0  0  0  0  0  0  0  0  0  0
   -3.8297    2.0252    1.3316 C   0  0  0  0  0  0  0  0  0  0  0  0
   -4.8189   -0.2562    1.6770 C   0  0  0  0  0  0  0  0  0  0  0  0
   -6.3379   -0.3447    1.5196 C   0  0  0  0  0  0  0  0  0  0  0  0
   -6.9580    0.9371    0.9898 C   0  0  0  0  0  0  0  0  0  0  0  0
   -6.4194    1.3342   -0.4089 C   0  0  0  0  0  0  0  0  0  0  0  0
   -6.5748    2.8645   -0.5490 C   0  0  0  0  0  0  0  0  0  0  0  0
   -7.3100    0.6295   -1.4467 C   0  0  0  0  0  0  0  0  0  0  0  0
   -7.7416   -0.5103   -1.3736 O   0  0  0  0  0  0  0  0  0  0  0  0
   -7.5553    1.3487   -2.5583 O   0  0  0  0  0  0  0  0  0  0  0  0
    3.6031   -1.8097   -0.6620 C   0  0  0  0  0  0  0  0  0  0  0  0
    3.4789   -2.8048   -1.8370 C   0  0  0  0  0  0  0  0  0  0  0  0
    2.1653   -3.5905   -1.8013 C   0  0  0  0  0  0  0  0  0  0  0  0
    2.2612   -4.7504   -2.6361 O   0  0  0  0  0  0  0  0  0  0  0  0
    3.5626   -2.1562   -3.1248 O   0  0  0  0  0  0  0  0  0  0  0  0
    4.1729   -0.5817   -1.1636 O   0  0  0  0  0  0  0  0  0  0  0  0
    5.1488   -0.0264   -0.2720 C   0  0  0  0  0  0  0  0  0  0  0  0
    4.5374    0.2755    0.9806 O   0  0  0  0  0  0  0  0  0  0  0  0
    5.4694    0.8377    1.9146 C   0  0  0  0  0  0  0  0  0  0  0  0
    4.7560    1.0066    3.2601 C   0  0  0  0  0  0  0  0  0  0  0  0
    5.6929    1.3717    4.2661 O   0  0  0  0  0  0  0  0  0  0  0  0
    6.0256    2.1816    1.3891 C   0  0  0  0  0  0  0  0  0  0  0  0
    6.6693    1.9716    0.0038 C   0  0  0  0  0  0  0  0  0  0  0  0
    5.6768    1.2672   -0.9323 C   0  0  0  0  0  0  0  0  0  0  0  0
    4.5716    2.1572   -1.2036 O   0  0  0  0  0  0  0  0  0  0  0  0
    7.8668    1.1939    0.0882 O   0  0  0  0  0  0  0  0  0  0  0  0
    4.9861    3.1697    1.3150 O   0  0  0  0  0  0  0  0  0  0  0  0
    4.3320   -5.5453    0.8015 H   0  0  0  0  0  0  0  0  0  0  0  0
    2.1316   -5.3011    1.2594 H   0  0  0  0  0  0  0  0  0  0  0  0
    2.4368   -6.0085   -0.3450 H   0  0  0  0  0  0  0  0  0  0  0  0
    0.6849   -4.2828   -0.4190 H   0  0  0  0  0  0  0  0  0  0  0  0
    2.3787   -0.9249    0.8934 H   0  0  0  0  0  0  0  0  0  0  0  0
    0.2633   -0.9681    1.7833 H   0  0  0  0  0  0  0  0  0  0  0  0
   -0.6704   -2.0655    0.7852 H   0  0  0  0  0  0  0  0  0  0  0  0
   -2.2176   -0.9321    2.1788 H   0  0  0  0  0  0  0  0  0  0  0  0
   -1.4752    0.6302    1.9088 H   0  0  0  0  0  0  0  0  0  0  0  0
   -3.0334   -1.0624   -0.0855 H   0  0  0  0  0  0  0  0  0  0  0  0
   -1.3096   -1.4991   -1.5531 H   0  0  0  0  0  0  0  0  0  0  0  0
   -0.4832   -0.2263   -2.4226 H   0  0  0  0  0  0  0  0  0  0  0  0
   -1.4534    2.4009    0.1007 H   0  0  0  0  0  0  0  0  0  0  0  0
   -0.8701    2.3543   -1.5729 H   0  0  0  0  0  0  0  0  0  0  0  0
    2.2496    1.3749    0.4522 H   0  0  0  0  0  0  0  0  0  0  0  0
    1.2842    2.9278    0.1520 H   0  0  0  0  0  0  0  0  0  0  0  0
   -2.4251    1.3876   -2.9563 H   0  0  0  0  0  0  0  0  0  0  0  0
   -3.2242   -0.1345   -2.6258 H   0  0  0  0  0  0  0  0  0  0  0  0
   -4.8428    1.6296   -2.6498 H   0  0  0  0  0  0  0  0  0  0  0  0
   -3.9594    2.5858   -1.4690 H   0  0  0  0  0  0  0  0  0  0  0  0
   -5.0708   -0.2223   -1.0233 H   0  0  0  0  0  0  0  0  0  0  0  0
   -3.4510    2.7828    0.6436 H   0  0  0  0  0  0  0  0  0  0  0  0
   -3.1176    1.9461    2.1597 H   0  0  0  0  0  0  0  0  0  0  0  0
   -4.7417    2.4318    1.7766 H   0  0  0  0  0  0  0  0  0  0  0  0
   -4.4436   -1.2877    1.6208 H   0  0  0  0  0  0  0  0  0  0  0  0
   -4.5902    0.0724    2.6995 H   0  0  0  0  0  0  0  0  0  0  0  0
   -6.5797   -1.1823    0.8542 H   0  0  0  0  0  0  0  0  0  0  0  0
   -6.7837   -0.5975    2.4879 H   0  0  0  0  0  0  0  0  0  0  0  0
   -8.0485    0.8194    0.9635 H   0  0  0  0  0  0  0  0  0  0  0  0
   -6.7740    1.7360    1.7182 H   0  0  0  0  0  0  0  0  0  0  0  0
   -5.9733    3.4103    0.1812 H   0  0  0  0  0  0  0  0  0  0  0  0
   -6.2879    3.2303   -1.5394 H   0  0  0  0  0  0  0  0  0  0  0  0
   -7.6191    3.1590   -0.3924 H   0  0  0  0  0  0  0  0  0  0  0  0
   -8.0792    0.7359   -3.1149 H   0  0  0  0  0  0  0  0  0  0  0  0
    4.2798   -2.2675    0.0731 H   0  0  0  0  0  0  0  0  0  0  0  0
    4.3387   -3.4883   -1.8136 H   0  0  0  0  0  0  0  0  0  0  0  0
    1.3767   -2.9804   -2.2613 H   0  0  0  0  0  0  0  0  0  0  0  0
    2.5348   -4.4203   -3.5103 H   0  0  0  0  0  0  0  0  0  0  0  0
    3.7321   -1.2161   -2.9170 H   0  0  0  0  0  0  0  0  0  0  0  0
    5.9606   -0.7524   -0.1302 H   0  0  0  0  0  0  0  0  0  0  0  0
    6.3035    0.1344    2.0502 H   0  0  0  0  0  0  0  0  0  0  0  0
    4.2760    0.0651    3.5565 H   0  0  0  0  0  0  0  0  0  0  0  0
    3.9656    1.7599    3.2028 H   0  0  0  0  0  0  0  0  0  0  0  0
    5.1846    1.8107    4.9750 H   0  0  0  0  0  0  0  0  0  0  0  0
    6.7707    2.5630    2.0959 H   0  0  0  0  0  0  0  0  0  0  0  0
    6.9307    2.9498   -0.4159 H   0  0  0  0  0  0  0  0  0  0  0  0
    6.1425    1.0277   -1.8928 H   0  0  0  0  0  0  0  0  0  0  0  0
    3.8562    1.5786   -1.5511 H   0  0  0  0  0  0  0  0  0  0  0  0
    8.3491    1.4571    0.9011 H   0  0  0  0  0  0  0  0  0  0  0  0
    4.5265    3.0370    0.4573 H   0  0  0  0  0  0  0  0  0  0  0  0
  1  2  1  0
  2  3  1  0
  3  4  1  0
  4  5  1  0
  5  6  1  0
  6  7  1  0
  7  8  1  0
  8  9  1  0
  9 10  1  0
 10 11  1  0
 11 12  1  0
 11 13  1  0
 13 14  1  0
 14 15  2  0
 11 16  1  0
 16 17  1  0
 17 18  1  0
 18 19  1  0
 19 20  1  0
 19 21  1  0
 21 22  1  0
 22 23  1  0
 23 24  1  0
 24 25  1  0
 24 26  1  0
 26 27  2  0
 26 28  1  0
  5 29  1  0
 29 30  1  0
 30 31  1  0
 31 32  1  0
 30 33  1  0
 29 34  1  0
 34 35  1  0
 35 36  1  0
 36 37  1  0
 37 38  1  0
 38 39  1  0
 37 40  1  0
 40 41  1  0
 41 42  1  0
 42 43  1  0
 41 44  1  0
 40 45  1  0
 31  3  1  0
 42 35  1  0
 12  7  1  0
 24 18  1  0
 14  7  1  0
 19 10  1  0
  1 46  1  0
  2 47  1  0
  2 48  1  0
  3 49  1  0
  5 50  1  0
  8 51  1  0
  8 52  1  0
  9 53  1  0
  9 54  1  0
 10 55  1  0
 12 56  1  0
 12 57  1  0
 13 58  1  0
 13 59  1  0
 15 60  1  0
 15 61  1  0
 16 62  1  0
 16 63  1  0
 17 64  1  0
 17 65  1  0
 18 66  1  0
 20 67  1  0
 20 68  1  0
 20 69  1  0
 21 70  1  0
 21 71  1  0
 22 72  1  0
 22 73  1  0
 23 74  1  0
 23 75  1  0
 25 76  1  0
 25 77  1  0
 25 78  1  0
 28 79  1  0
 29 80  1  0
 30 81  1  0
 31 82  1  0
 32 83  1  0
 33 84  1  0
 35 85  1  0
 37 86  1  0
 38 87  1  0
 38 88  1  0
 39 89  1  0
 40 90  1  0
 41 91  1  0
 42 92  1  0
 43 93  1  0
 44 94  1  0
 45 95  1  0
M  END
