
     RDKit          3D

 45 46  0  0  0  0  0  0  0  0999 V2000
   -3.2168    2.7487   -1.9473 O   0  0  0  0  0  0  0  0  0  0  0  0
   -2.1377    1.9191   -1.5237 C   0  0  0  0  0  0  0  0  0  0  0  0
   -2.6103    0.4853   -1.2573 C   0  0  0  0  0  0  0  0  0  0  0  0
   -1.4796   -0.3611   -0.9707 O   0  0  0  0  0  0  0  0  0  0  0  0
   -1.6232   -0.9305    0.3430 C   0  0  0  0  0  0  0  0  0  0  0  0
   -2.6963   -0.0854    1.0493 C   0  0  0  0  0  0  0  0  0  0  0  0
   -3.5989    0.3264   -0.0962 C   0  0  0  0  0  0  0  0  0  0  0  0
   -4.3413    1.5023    0.2132 O   0  0  0  0  0  0  0  0  0  0  0  0
   -2.1507    1.1252    1.6205 O   0  0  0  0  0  0  0  0  0  0  0  0
   -2.0529   -2.4131    0.2130 C   0  0  0  0  0  0  0  0  0  0  0  0
   -0.9521   -3.2296   -0.2223 O   0  0  0  0  0  0  0  0  0  0  0  0
   -0.4470   -0.8715    1.1563 O   0  0  0  0  0  0  0  0  0  0  0  0
    0.7645   -0.7135    0.4215 C   0  0  0  0  0  0  0  0  0  0  0  0
    1.0962    0.6716    0.4622 O   0  0  0  0  0  0  0  0  0  0  0  0
    2.3207    0.9588   -0.2376 C   0  0  0  0  0  0  0  0  0  0  0  0
    2.5195    2.4790   -0.2638 C   0  0  0  0  0  0  0  0  0  0  0  0
    1.5064    3.0814   -1.0736 O   0  0  0  0  0  0  0  0  0  0  0  0
    3.4847    0.2510    0.4682 C   0  0  0  0  0  0  0  0  0  0  0  0
    3.2120   -1.2550    0.5108 C   0  0  0  0  0  0  0  0  0  0  0  0
    1.8456   -1.5561    1.1253 C   0  0  0  0  0  0  0  0  0  0  0  0
    1.6078   -2.9713    1.0026 O   0  0  0  0  0  0  0  0  0  0  0  0
    4.2519   -1.8996    1.2655 O   0  0  0  0  0  0  0  0  0  0  0  0
    4.7251    0.4816   -0.2029 O   0  0  0  0  0  0  0  0  0  0  0  0
   -3.9175    2.6589   -1.2684 H   0  0  0  0  0  0  0  0  0  0  0  0
   -1.3772    1.9215   -2.3119 H   0  0  0  0  0  0  0  0  0  0  0  0
   -1.6703    2.3656   -0.6405 H   0  0  0  0  0  0  0  0  0  0  0  0
   -3.0847    0.1109   -2.1725 H   0  0  0  0  0  0  0  0  0  0  0  0
   -3.2162   -0.6068    1.8578 H   0  0  0  0  0  0  0  0  0  0  0  0
   -4.3049   -0.4796   -0.3268 H   0  0  0  0  0  0  0  0  0  0  0  0
   -3.8295    1.9444    0.9288 H   0  0  0  0  0  0  0  0  0  0  0  0
   -1.1833    0.9698    1.7023 H   0  0  0  0  0  0  0  0  0  0  0  0
   -2.3683   -2.8098    1.1831 H   0  0  0  0  0  0  0  0  0  0  0  0
   -2.8634   -2.5279   -0.5137 H   0  0  0  0  0  0  0  0  0  0  0  0
   -1.3293   -4.0853   -0.4994 H   0  0  0  0  0  0  0  0  0  0  0  0
    0.6666   -1.0631   -0.6140 H   0  0  0  0  0  0  0  0  0  0  0  0
    2.2218    0.6126   -1.2753 H   0  0  0  0  0  0  0  0  0  0  0  0
    3.4901    2.7495   -0.6897 H   0  0  0  0  0  0  0  0  0  0  0  0
    2.4321    2.8990    0.7436 H   0  0  0  0  0  0  0  0  0  0  0  0
    1.6316    4.0438   -1.0150 H   0  0  0  0  0  0  0  0  0  0  0  0
    3.5959    0.6276    1.4929 H   0  0  0  0  0  0  0  0  0  0  0  0
    3.2790   -1.6792   -0.4992 H   0  0  0  0  0  0  0  0  0  0  0  0
    1.8595   -1.3393    2.2002 H   0  0  0  0  0  0  0  0  0  0  0  0
    0.6623   -3.0835    0.7571 H   0  0  0  0  0  0  0  0  0  0  0  0
    3.9271   -2.8121    1.4112 H   0  0  0  0  0  0  0  0  0  0  0  0
    5.3512   -0.1605    0.1909 H   0  0  0  0  0  0  0  0  0  0  0  0
  1  2  1  0
  2  3  1  0
  3  4  1  0
  4  5  1  0
  5  6  1  0
  6  7  1  0
  7  8  1  0
  6  9  1  0
  5 10  1  0
 10 11  1  0
  5 12  1  0
 12 13  1  0
 13 14  1  0
 14 15  1  0
 15 16  1  0
 16 17  1  0
 15 18  1  0
 18 19  1  0
 19 20  1  0
 20 21  1  0
 19 22  1  0
 18 23  1  0
  7  3  1  0
 20 13  1  0
  1 24  1  0
  2 25  1  0
  2 26  1  0
  3 27  1  0
  6 28  1  0
  7 29  1  0
  8 30  1  0
  9 31  1  0
 10 32  1  0
 10 33  1  0
 11 34  1  0
 13 35  1  0
 15 36  1  0
 16 37  1  0
 16 38  1  0
 17 39  1  0
 18 40  1  0
 19 41  1  0
 20 42  1  0
 21 43  1  0
 22 44  1  0
 23 45  1  0
M  END
