
     RDKit          3D

 36 37  0  0  0  0  0  0  0  0999 V2000
    6.3571   -0.0404    0.2934 C   0  0  0  0  0  0  0  0  0  0  0  0
    5.3821    0.9953    0.2570 O   0  0  0  0  0  0  0  0  0  0  0  0
    4.0922    0.6122   -0.0069 C   0  0  0  0  0  0  0  0  0  0  0  0
    3.6480   -0.6892   -0.2334 C   0  0  0  0  0  0  0  0  0  0  0  0
    2.2925   -0.9329   -0.4914 C   0  0  0  0  0  0  0  0  0  0  0  0
    1.3666    0.1200   -0.5309 C   0  0  0  0  0  0  0  0  0  0  0  0
    1.8134    1.4251   -0.2979 C   0  0  0  0  0  0  0  0  0  0  0  0
    3.1604    1.6555   -0.0421 C   0  0  0  0  0  0  0  0  0  0  0  0
    3.5635    2.9452    0.1802 O   0  0  0  0  0  0  0  0  0  0  0  0
   -0.0948   -0.1518   -0.7893 C   0  0  0  0  0  0  0  0  0  0  0  0
   -0.8673   -0.3714    0.5142 C   0  0  0  0  0  0  0  0  0  0  0  0
   -2.3274   -0.6496    0.2543 C   0  0  0  0  0  0  0  0  0  0  0  0
   -2.7812   -1.9632    0.0862 C   0  0  0  0  0  0  0  0  0  0  0  0
   -4.1265   -2.2151   -0.1809 C   0  0  0  0  0  0  0  0  0  0  0  0
   -5.0303   -1.1576   -0.2824 C   0  0  0  0  0  0  0  0  0  0  0  0
   -4.5984    0.1618   -0.1083 C   0  0  0  0  0  0  0  0  0  0  0  0
   -3.2424    0.4078    0.1455 C   0  0  0  0  0  0  0  0  0  0  0  0
   -5.5619    1.3022   -0.2529 C   0  0  0  0  0  0  0  0  0  0  0  0
    6.4358   -0.5428   -0.6763 H   0  0  0  0  0  0  0  0  0  0  0  0
    7.3258    0.4208    0.5087 H   0  0  0  0  0  0  0  0  0  0  0  0
    6.1434   -0.7554    1.0947 H   0  0  0  0  0  0  0  0  0  0  0  0
    4.3231   -1.5378   -0.2162 H   0  0  0  0  0  0  0  0  0  0  0  0
    1.9624   -1.9557   -0.6629 H   0  0  0  0  0  0  0  0  0  0  0  0
    1.1226    2.2636   -0.3137 H   0  0  0  0  0  0  0  0  0  0  0  0
    4.5261    2.8817    0.3339 H   0  0  0  0  0  0  0  0  0  0  0  0
   -0.5242    0.6860   -1.3545 H   0  0  0  0  0  0  0  0  0  0  0  0
   -0.1915   -1.0276   -1.4445 H   0  0  0  0  0  0  0  0  0  0  0  0
   -0.4332   -1.2056    1.0811 H   0  0  0  0  0  0  0  0  0  0  0  0
   -0.7765    0.5060    1.1680 H   0  0  0  0  0  0  0  0  0  0  0  0
   -2.0884   -2.7982    0.1589 H   0  0  0  0  0  0  0  0  0  0  0  0
   -4.4712   -3.2371   -0.3138 H   0  0  0  0  0  0  0  0  0  0  0  0
   -6.0748   -1.3696   -0.4984 H   0  0  0  0  0  0  0  0  0  0  0  0
   -2.8951    1.4331    0.2605 H   0  0  0  0  0  0  0  0  0  0  0  0
   -5.2702    2.1430    0.3852 H   0  0  0  0  0  0  0  0  0  0  0  0
   -5.5887    1.6397   -1.2935 H   0  0  0  0  0  0  0  0  0  0  0  0
   -6.5712    1.0020    0.0479 H   0  0  0  0  0  0  0  0  0  0  0  0
  1  2  1  0
  2  3  1  0
  3  4  2  0
  4  5  1  0
  5  6  2  0
  6  7  1  0
  7  8  2  0
  8  9  1  0
  6 10  1  0
 10 11  1  0
 11 12  1  0
 12 13  2  0
 13 14  1  0
 14 15  2  0
 15 16  1  0
 16 17  2  0
 16 18  1  0
  8  3  1  0
 17 12  1  0
  1 19  1  0
  1 20  1  0
  1 21  1  0
  4 22  1  0
  5 23  1  0
  7 24  1  0
  9 25  1  0
 10 26  1  0
 10 27  1  0
 11 28  1  0
 11 29  1  0
 13 30  1  0
 14 31  1  0
 15 32  1  0
 17 33  1  0
 18 34  1  0
 18 35  1  0
 18 36  1  0
M  END
