
     RDKit          3D

 34 35  0  0  0  0  0  0  0  0999 V2000
    5.9461   -0.0782    0.9328 C   0  0  0  0  0  0  0  0  0  0  0  0
    5.1695    0.4285   -0.1465 O   0  0  0  0  0  0  0  0  0  0  0  0
    3.8301    0.1353   -0.1267 C   0  0  0  0  0  0  0  0  0  0  0  0
    3.1612   -0.6016    0.8489 C   0  0  0  0  0  0  0  0  0  0  0  0
    1.7820   -0.8224    0.7384 C   0  0  0  0  0  0  0  0  0  0  0  0
    1.0564   -0.3144   -0.3491 C   0  0  0  0  0  0  0  0  0  0  0  0
    1.7285    0.4297   -1.3247 C   0  0  0  0  0  0  0  0  0  0  0  0
    3.0970    0.6435   -1.2049 C   0  0  0  0  0  0  0  0  0  0  0  0
    3.7234    1.3750   -2.1783 O   0  0  0  0  0  0  0  0  0  0  0  0
   -0.4321   -0.5389   -0.4504 C   0  0  0  0  0  0  0  0  0  0  0  0
   -1.2197    0.5855    0.2275 C   0  0  0  0  0  0  0  0  0  0  0  0
   -2.7078    0.3586    0.1294 C   0  0  0  0  0  0  0  0  0  0  0  0
   -3.4346    0.8607   -0.9589 C   0  0  0  0  0  0  0  0  0  0  0  0
   -4.8091    0.6328   -1.0579 C   0  0  0  0  0  0  0  0  0  0  0  0
   -5.4705   -0.1023   -0.0742 C   0  0  0  0  0  0  0  0  0  0  0  0
   -4.7475   -0.6053    1.0024 C   0  0  0  0  0  0  0  0  0  0  0  0
   -3.3784   -0.3835    1.1105 C   0  0  0  0  0  0  0  0  0  0  0  0
   -5.3517   -1.3326    1.9855 O   0  0  0  0  0  0  0  0  0  0  0  0
    5.6153    0.3421    1.8883 H   0  0  0  0  0  0  0  0  0  0  0  0
    6.9827    0.2338    0.7732 H   0  0  0  0  0  0  0  0  0  0  0  0
    5.9273   -1.1728    0.9530 H   0  0  0  0  0  0  0  0  0  0  0  0
    3.6756   -1.0180    1.7081 H   0  0  0  0  0  0  0  0  0  0  0  0
    1.2748   -1.3971    1.5113 H   0  0  0  0  0  0  0  0  0  0  0  0
    1.1967    0.8443   -2.1765 H   0  0  0  0  0  0  0  0  0  0  0  0
    4.6609    1.4011   -1.9047 H   0  0  0  0  0  0  0  0  0  0  0  0
   -0.6842   -1.5089   -0.0019 H   0  0  0  0  0  0  0  0  0  0  0  0
   -0.7151   -0.6224   -1.5080 H   0  0  0  0  0  0  0  0  0  0  0  0
   -0.9348    0.6707    1.2845 H   0  0  0  0  0  0  0  0  0  0  0  0
   -0.9695    1.5552   -0.2228 H   0  0  0  0  0  0  0  0  0  0  0  0
   -2.9330    1.4333   -1.7364 H   0  0  0  0  0  0  0  0  0  0  0  0
   -5.3631    1.0292   -1.9050 H   0  0  0  0  0  0  0  0  0  0  0  0
   -6.5384   -0.2715   -0.1651 H   0  0  0  0  0  0  0  0  0  0  0  0
   -2.8392   -0.7911    1.9616 H   0  0  0  0  0  0  0  0  0  0  0  0
   -6.2987   -1.3983    1.7810 H   0  0  0  0  0  0  0  0  0  0  0  0
  1  2  1  0
  2  3  1  0
  3  4  2  0
  4  5  1  0
  5  6  2  0
  6  7  1  0
  7  8  2  0
  8  9  1  0
  6 10  1  0
 10 11  1  0
 11 12  1  0
 12 13  2  0
 13 14  1  0
 14 15  2  0
 15 16  1  0
 16 17  2  0
 16 18  1  0
  8  3  1  0
 17 12  1  0
  1 19  1  0
  1 20  1  0
  1 21  1  0
  4 22  1  0
  5 23  1  0
  7 24  1  0
  9 25  1  0
 10 26  1  0
 10 27  1  0
 11 28  1  0
 11 29  1  0
 13 30  1  0
 14 31  1  0
 15 32  1  0
 17 33  1  0
 18 34  1  0
M  END
