
     RDKit          3D

 37 38  0  0  0  0  0  0  0  0999 V2000
    5.2843    1.4235   -1.2751 C   0  0  0  0  0  0  0  0  0  0  0  0
    4.4859    0.2550   -1.1395 O   0  0  0  0  0  0  0  0  0  0  0  0
    3.4874    0.2947   -0.2048 C   0  0  0  0  0  0  0  0  0  0  0  0
    3.1614    1.3845    0.6019 C   0  0  0  0  0  0  0  0  0  0  0  0
    2.1089    1.2893    1.5161 C   0  0  0  0  0  0  0  0  0  0  0  0
    1.3793    0.1063    1.6296 C   0  0  0  0  0  0  0  0  0  0  0  0
    1.6957   -0.9970    0.8298 C   0  0  0  0  0  0  0  0  0  0  0  0
    2.7515   -0.8887   -0.0870 C   0  0  0  0  0  0  0  0  0  0  0  0
    0.8975   -2.2752    0.9317 C   0  0  0  0  0  0  0  0  0  0  0  0
   -0.1578   -2.4271   -0.1714 C   0  0  0  0  0  0  0  0  0  0  0  0
   -1.3234   -1.4777   -0.0239 C   0  0  0  0  0  0  0  0  0  0  0  0
   -1.3669   -0.2822   -0.7565 C   0  0  0  0  0  0  0  0  0  0  0  0
   -2.4333    0.6141   -0.6097 C   0  0  0  0  0  0  0  0  0  0  0  0
   -3.4703    0.3247    0.2749 C   0  0  0  0  0  0  0  0  0  0  0  0
   -3.4174   -0.8681    1.0047 C   0  0  0  0  0  0  0  0  0  0  0  0
   -2.3636   -1.7644    0.8667 C   0  0  0  0  0  0  0  0  0  0  0  0
   -4.4184   -1.1798    1.8857 O   0  0  0  0  0  0  0  0  0  0  0  0
   -4.5702    1.1063    0.5198 O   0  0  0  0  0  0  0  0  0  0  0  0
   -4.6596    2.3221   -0.2141 C   0  0  0  0  0  0  0  0  0  0  0  0
    5.8113    1.6530   -0.3431 H   0  0  0  0  0  0  0  0  0  0  0  0
    4.6832    2.2752   -1.6104 H   0  0  0  0  0  0  0  0  0  0  0  0
    6.0381    1.2259   -2.0433 H   0  0  0  0  0  0  0  0  0  0  0  0
    3.7028    2.3224    0.5445 H   0  0  0  0  0  0  0  0  0  0  0  0
    1.8543    2.1416    2.1409 H   0  0  0  0  0  0  0  0  0  0  0  0
    0.5555    0.0531    2.3386 H   0  0  0  0  0  0  0  0  0  0  0  0
    3.0104   -1.7341   -0.7210 H   0  0  0  0  0  0  0  0  0  0  0  0
    1.5968   -3.1196    0.8730 H   0  0  0  0  0  0  0  0  0  0  0  0
    0.4326   -2.3451    1.9235 H   0  0  0  0  0  0  0  0  0  0  0  0
    0.2971   -2.3045   -1.1626 H   0  0  0  0  0  0  0  0  0  0  0  0
   -0.5479   -3.4532   -0.1506 H   0  0  0  0  0  0  0  0  0  0  0  0
   -0.5578   -0.0344   -1.4418 H   0  0  0  0  0  0  0  0  0  0  0  0
   -2.4150    1.5251   -1.1977 H   0  0  0  0  0  0  0  0  0  0  0  0
   -2.3603   -2.6779    1.4546 H   0  0  0  0  0  0  0  0  0  0  0  0
   -5.0448   -0.4327    1.8233 H   0  0  0  0  0  0  0  0  0  0  0  0
   -4.7169    2.1304   -1.2907 H   0  0  0  0  0  0  0  0  0  0  0  0
   -3.8259    2.9902    0.0263 H   0  0  0  0  0  0  0  0  0  0  0  0
   -5.5849    2.8244    0.0840 H   0  0  0  0  0  0  0  0  0  0  0  0
  1  2  1  0
  2  3  1  0
  3  4  2  0
  4  5  1  0
  5  6  2  0
  6  7  1  0
  7  8  2  0
  7  9  1  0
  9 10  1  0
 10 11  1  0
 11 12  2  0
 12 13  1  0
 13 14  2  0
 14 15  1  0
 15 16  2  0
 15 17  1  0
 14 18  1  0
 18 19  1  0
  8  3  1  0
 16 11  1  0
  1 20  1  0
  1 21  1  0
  1 22  1  0
  4 23  1  0
  5 24  1  0
  6 25  1  0
  8 26  1  0
  9 27  1  0
  9 28  1  0
 10 29  1  0
 10 30  1  0
 12 31  1  0
 13 32  1  0
 16 33  1  0
 17 34  1  0
 19 35  1  0
 19 36  1  0
 19 37  1  0
M  END
