
     RDKit          3D

 37 38  0  0  0  0  0  0  0  0999 V2000
    6.0445    2.0996   -0.6943 C   0  0  0  0  0  0  0  0  0  0  0  0
    5.4711    0.8957   -1.1911 O   0  0  0  0  0  0  0  0  0  0  0  0
    4.2040    0.5980   -0.7599 C   0  0  0  0  0  0  0  0  0  0  0  0
    3.4264    1.3633    0.1074 C   0  0  0  0  0  0  0  0  0  0  0  0
    2.1410    0.9330    0.4620 C   0  0  0  0  0  0  0  0  0  0  0  0
    1.6195   -0.2679   -0.0413 C   0  0  0  0  0  0  0  0  0  0  0  0
    2.3993   -1.0320   -0.9160 C   0  0  0  0  0  0  0  0  0  0  0  0
    3.6731   -0.5953   -1.2618 C   0  0  0  0  0  0  0  0  0  0  0  0
    4.4093   -1.3684   -2.1193 O   0  0  0  0  0  0  0  0  0  0  0  0
    0.2268   -0.7149    0.3282 C   0  0  0  0  0  0  0  0  0  0  0  0
   -0.8143   -0.1995   -0.6691 C   0  0  0  0  0  0  0  0  0  0  0  0
   -2.2080   -0.6423   -0.2963 C   0  0  0  0  0  0  0  0  0  0  0  0
   -2.7170   -1.8567   -0.7720 C   0  0  0  0  0  0  0  0  0  0  0  0
   -4.0003   -2.2716   -0.4172 C   0  0  0  0  0  0  0  0  0  0  0  0
   -4.7845   -1.4814    0.4228 C   0  0  0  0  0  0  0  0  0  0  0  0
   -4.2874   -0.2724    0.9244 C   0  0  0  0  0  0  0  0  0  0  0  0
   -3.0002    0.1433    0.5527 C   0  0  0  0  0  0  0  0  0  0  0  0
   -5.1399    0.5988    1.8067 C   0  0  0  0  0  0  0  0  0  0  0  0
   -5.7974    1.5978    1.0389 O   0  0  0  0  0  0  0  0  0  0  0  0
    5.4647    2.9728   -1.0113 H   0  0  0  0  0  0  0  0  0  0  0  0
    6.1491    2.0669    0.3952 H   0  0  0  0  0  0  0  0  0  0  0  0
    7.0472    2.1929   -1.1223 H   0  0  0  0  0  0  0  0  0  0  0  0
    3.7837    2.2979    0.5260 H   0  0  0  0  0  0  0  0  0  0  0  0
    1.5467    1.5450    1.1379 H   0  0  0  0  0  0  0  0  0  0  0  0
    2.0246   -1.9638   -1.3306 H   0  0  0  0  0  0  0  0  0  0  0  0
    5.2539   -0.8888   -2.2237 H   0  0  0  0  0  0  0  0  0  0  0  0
    0.2000   -1.8115    0.3796 H   0  0  0  0  0  0  0  0  0  0  0  0
   -0.0092   -0.3679    1.3429 H   0  0  0  0  0  0  0  0  0  0  0  0
   -0.7840    0.8968   -0.7234 H   0  0  0  0  0  0  0  0  0  0  0  0
   -0.5814   -0.5497   -1.6834 H   0  0  0  0  0  0  0  0  0  0  0  0
   -2.1168   -2.4858   -1.4259 H   0  0  0  0  0  0  0  0  0  0  0  0
   -4.3901   -3.2125   -0.7976 H   0  0  0  0  0  0  0  0  0  0  0  0
   -5.7866   -1.8152    0.6841 H   0  0  0  0  0  0  0  0  0  0  0  0
   -2.6144    1.0902    0.9278 H   0  0  0  0  0  0  0  0  0  0  0  0
   -4.5296    1.0896    2.5721 H   0  0  0  0  0  0  0  0  0  0  0  0
   -5.8993    0.0055    2.3268 H   0  0  0  0  0  0  0  0  0  0  0  0
   -5.6243    1.4106    0.0999 H   0  0  0  0  0  0  0  0  0  0  0  0
  1  2  1  0
  2  3  1  0
  3  4  2  0
  4  5  1  0
  5  6  2  0
  6  7  1  0
  7  8  2  0
  8  9  1  0
  6 10  1  0
 10 11  1  0
 11 12  1  0
 12 13  2  0
 13 14  1  0
 14 15  2  0
 15 16  1  0
 16 17  2  0
 16 18  1  0
 18 19  1  0
  8  3  1  0
 17 12  1  0
  1 20  1  0
  1 21  1  0
  1 22  1  0
  4 23  1  0
  5 24  1  0
  7 25  1  0
  9 26  1  0
 10 27  1  0
 10 28  1  0
 11 29  1  0
 11 30  1  0
 13 31  1  0
 14 32  1  0
 15 33  1  0
 17 34  1  0
 18 35  1  0
 18 36  1  0
 19 37  1  0
M  END
