
     RDKit          3D

 39 40  0  0  0  0  0  0  0  0999 V2000
    6.9371   -0.0481   -2.0508 C   0  0  0  0  0  0  0  0  0  0  0  0
    6.0526   -0.1321   -0.9327 O   0  0  0  0  0  0  0  0  0  0  0  0
    4.7455   -0.2602   -1.2732 C   0  0  0  0  0  0  0  0  0  0  0  0
    4.3063   -0.3042   -2.4119 O   0  0  0  0  0  0  0  0  0  0  0  0
    3.8896   -0.3426   -0.0580 C   0  0  0  0  0  0  0  0  0  0  0  0
    4.4147   -0.2686    1.2384 C   0  0  0  0  0  0  0  0  0  0  0  0
    3.5651   -0.3462    2.3435 C   0  0  0  0  0  0  0  0  0  0  0  0
    2.1900   -0.4993    2.1620 C   0  0  0  0  0  0  0  0  0  0  0  0
    1.6484   -0.5813    0.8732 C   0  0  0  0  0  0  0  0  0  0  0  0
    2.5063   -0.4969   -0.2333 C   0  0  0  0  0  0  0  0  0  0  0  0
    0.1592   -0.7269    0.6754 C   0  0  0  0  0  0  0  0  0  0  0  0
   -0.5301    0.6350    0.5558 C   0  0  0  0  0  0  0  0  0  0  0  0
   -2.0172    0.4886    0.3496 C   0  0  0  0  0  0  0  0  0  0  0  0
   -2.5532    0.4059   -0.9439 C   0  0  0  0  0  0  0  0  0  0  0  0
   -3.9314    0.2503   -1.1427 C   0  0  0  0  0  0  0  0  0  0  0  0
   -4.7896    0.1708   -0.0475 C   0  0  0  0  0  0  0  0  0  0  0  0
   -4.2453    0.2479    1.2392 C   0  0  0  0  0  0  0  0  0  0  0  0
   -2.8796    0.4031    1.4478 C   0  0  0  0  0  0  0  0  0  0  0  0
   -5.0605    0.1689    2.3366 O   0  0  0  0  0  0  0  0  0  0  0  0
   -6.1516    0.0182   -0.0929 O   0  0  0  0  0  0  0  0  0  0  0  0
   -6.7391   -0.0570   -1.3867 C   0  0  0  0  0  0  0  0  0  0  0  0
    6.7066    0.8338   -2.6568 H   0  0  0  0  0  0  0  0  0  0  0  0
    6.8806   -0.9597   -2.6540 H   0  0  0  0  0  0  0  0  0  0  0  0
    7.9569    0.0515   -1.6690 H   0  0  0  0  0  0  0  0  0  0  0  0
    5.4823   -0.1486    1.4041 H   0  0  0  0  0  0  0  0  0  0  0  0
    3.9755   -0.2862    3.3487 H   0  0  0  0  0  0  0  0  0  0  0  0
    1.5418   -0.5549    3.0346 H   0  0  0  0  0  0  0  0  0  0  0  0
    2.0956   -0.5520   -1.2408 H   0  0  0  0  0  0  0  0  0  0  0  0
   -0.2643   -1.2996    1.5111 H   0  0  0  0  0  0  0  0  0  0  0  0
   -0.0293   -1.3329   -0.2207 H   0  0  0  0  0  0  0  0  0  0  0  0
   -0.3460    1.2386    1.4545 H   0  0  0  0  0  0  0  0  0  0  0  0
   -0.1030    1.2101   -0.2763 H   0  0  0  0  0  0  0  0  0  0  0  0
   -1.8974    0.4628   -1.8109 H   0  0  0  0  0  0  0  0  0  0  0  0
   -4.2949    0.1940   -2.1630 H   0  0  0  0  0  0  0  0  0  0  0  0
   -2.4985    0.4563    2.4639 H   0  0  0  0  0  0  0  0  0  0  0  0
   -5.9605    0.0667    1.9706 H   0  0  0  0  0  0  0  0  0  0  0  0
   -6.3745   -0.9318   -1.9353 H   0  0  0  0  0  0  0  0  0  0  0  0
   -6.5688    0.8652   -1.9520 H   0  0  0  0  0  0  0  0  0  0  0  0
   -7.8194   -0.1726   -1.2564 H   0  0  0  0  0  0  0  0  0  0  0  0
  1  2  1  0
  2  3  1  0
  3  4  2  0
  3  5  1  0
  5  6  2  0
  6  7  1  0
  7  8  2  0
  8  9  1  0
  9 10  2  0
  9 11  1  0
 11 12  1  0
 12 13  1  0
 13 14  2  0
 14 15  1  0
 15 16  2  0
 16 17  1  0
 17 18  2  0
 17 19  1  0
 16 20  1  0
 20 21  1  0
 10  5  1  0
 18 13  1  0
  1 22  1  0
  1 23  1  0
  1 24  1  0
  6 25  1  0
  7 26  1  0
  8 27  1  0
 10 28  1  0
 11 29  1  0
 11 30  1  0
 12 31  1  0
 12 32  1  0
 14 33  1  0
 15 34  1  0
 18 35  1  0
 19 36  1  0
 21 37  1  0
 21 38  1  0
 21 39  1  0
M  END
