
     RDKit          3D

 36 37  0  0  0  0  0  0  0  0999 V2000
   -6.2478    0.1076    0.9800 C   0  0  0  0  0  0  0  0  0  0  0  0
   -5.5469   -0.0118   -0.2526 O   0  0  0  0  0  0  0  0  0  0  0  0
   -4.1880    0.1650   -0.2031 C   0  0  0  0  0  0  0  0  0  0  0  0
   -3.4327    0.4405    0.9353 C   0  0  0  0  0  0  0  0  0  0  0  0
   -2.0438    0.5960    0.8350 C   0  0  0  0  0  0  0  0  0  0  0  0
   -1.3944    0.4829   -0.4031 C   0  0  0  0  0  0  0  0  0  0  0  0
   -2.1534    0.2009   -1.5439 C   0  0  0  0  0  0  0  0  0  0  0  0
   -3.5308    0.0477   -1.4328 C   0  0  0  0  0  0  0  0  0  0  0  0
   -4.2429   -0.2266   -2.5697 O   0  0  0  0  0  0  0  0  0  0  0  0
    0.1037    0.6308   -0.5000 C   0  0  0  0  0  0  0  0  0  0  0  0
    0.8147   -0.7156   -0.3395 C   0  0  0  0  0  0  0  0  0  0  0  0
    2.3140   -0.5671   -0.4277 C   0  0  0  0  0  0  0  0  0  0  0  0
    2.9674   -0.6702   -1.6627 C   0  0  0  0  0  0  0  0  0  0  0  0
    4.3519   -0.5146   -1.7474 C   0  0  0  0  0  0  0  0  0  0  0  0
    5.0991   -0.2495   -0.5989 C   0  0  0  0  0  0  0  0  0  0  0  0
    4.4598   -0.1376    0.6409 C   0  0  0  0  0  0  0  0  0  0  0  0
    3.0693   -0.2948    0.7222 C   0  0  0  0  0  0  0  0  0  0  0  0
    5.2075    0.1480    1.8892 C   0  0  0  0  0  0  0  0  0  0  0  0
    4.7226    0.2702    2.9991 O   0  0  0  0  0  0  0  0  0  0  0  0
    6.5322    0.2687    1.6905 O   0  0  0  0  0  0  0  0  0  0  0  0
   -6.1384    1.1126    1.4007 H   0  0  0  0  0  0  0  0  0  0  0  0
   -5.9254   -0.6583    1.6930 H   0  0  0  0  0  0  0  0  0  0  0  0
   -7.3108   -0.0539    0.7762 H   0  0  0  0  0  0  0  0  0  0  0  0
   -3.8862    0.5401    1.9155 H   0  0  0  0  0  0  0  0  0  0  0  0
   -1.4695    0.8076    1.7351 H   0  0  0  0  0  0  0  0  0  0  0  0
   -1.6829    0.0994   -2.5179 H   0  0  0  0  0  0  0  0  0  0  0  0
   -5.1712   -0.2908   -2.2721 H   0  0  0  0  0  0  0  0  0  0  0  0
    0.3615    1.0886   -1.4642 H   0  0  0  0  0  0  0  0  0  0  0  0
    0.4487    1.3407    0.2633 H   0  0  0  0  0  0  0  0  0  0  0  0
    0.5524   -1.1763    0.6222 H   0  0  0  0  0  0  0  0  0  0  0  0
    0.4740   -1.4238   -1.1064 H   0  0  0  0  0  0  0  0  0  0  0  0
    2.3995   -0.8735   -2.5688 H   0  0  0  0  0  0  0  0  0  0  0  0
    4.8493   -0.5993   -2.7107 H   0  0  0  0  0  0  0  0  0  0  0  0
    6.1765   -0.1305   -0.6816 H   0  0  0  0  0  0  0  0  0  0  0  0
    2.5742   -0.2046    1.6880 H   0  0  0  0  0  0  0  0  0  0  0  0
    6.8869    0.4513    2.5856 H   0  0  0  0  0  0  0  0  0  0  0  0
  1  2  1  0
  2  3  1  0
  3  4  2  0
  4  5  1  0
  5  6  2  0
  6  7  1  0
  7  8  2  0
  8  9  1  0
  6 10  1  0
 10 11  1  0
 11 12  1  0
 12 13  2  0
 13 14  1  0
 14 15  2  0
 15 16  1  0
 16 17  2  0
 16 18  1  0
 18 19  2  0
 18 20  1  0
  8  3  1  0
 17 12  1  0
  1 21  1  0
  1 22  1  0
  1 23  1  0
  4 24  1  0
  5 25  1  0
  7 26  1  0
  9 27  1  0
 10 28  1  0
 10 29  1  0
 11 30  1  0
 11 31  1  0
 13 32  1  0
 14 33  1  0
 15 34  1  0
 17 35  1  0
 20 36  1  0
M  END
