
     RDKit          3D

 36 37  0  0  0  0  0  0  0  0999 V2000
   -4.2796    2.5450   -0.4773 C   0  0  0  0  0  0  0  0  0  0  0  0
   -4.1162    1.5381    0.5148 O   0  0  0  0  0  0  0  0  0  0  0  0
   -3.1458    0.5987    0.2772 C   0  0  0  0  0  0  0  0  0  0  0  0
   -2.3083    0.5411   -0.8349 C   0  0  0  0  0  0  0  0  0  0  0  0
   -1.3566   -0.4810   -0.9432 C   0  0  0  0  0  0  0  0  0  0  0  0
   -1.2300   -1.4577    0.0556 C   0  0  0  0  0  0  0  0  0  0  0  0
   -2.0691   -1.3955    1.1735 C   0  0  0  0  0  0  0  0  0  0  0  0
   -3.0110   -0.3775    1.2706 C   0  0  0  0  0  0  0  0  0  0  0  0
   -3.8159   -0.3468    2.3781 O   0  0  0  0  0  0  0  0  0  0  0  0
   -0.1849   -2.5423   -0.0576 C   0  0  0  0  0  0  0  0  0  0  0  0
    1.1049   -2.2319    0.7128 C   0  0  0  0  0  0  0  0  0  0  0  0
    1.9402   -1.1464    0.0757 C   0  0  0  0  0  0  0  0  0  0  0  0
    1.8767    0.1698    0.5487 C   0  0  0  0  0  0  0  0  0  0  0  0
    2.6340    1.1774   -0.0529 C   0  0  0  0  0  0  0  0  0  0  0  0
    3.4596    0.8891   -1.1450 C   0  0  0  0  0  0  0  0  0  0  0  0
    3.5335   -0.4282   -1.6108 C   0  0  0  0  0  0  0  0  0  0  0  0
    2.7753   -1.4362   -1.0103 C   0  0  0  0  0  0  0  0  0  0  0  0
    4.2992    1.9644   -1.7676 C   0  0  0  0  0  0  0  0  0  0  0  0
   -5.0839    3.2101   -0.1482 H   0  0  0  0  0  0  0  0  0  0  0  0
   -3.3712    3.1475   -0.5815 H   0  0  0  0  0  0  0  0  0  0  0  0
   -4.5793    2.1095   -1.4363 H   0  0  0  0  0  0  0  0  0  0  0  0
   -2.3602    1.2727   -1.6337 H   0  0  0  0  0  0  0  0  0  0  0  0
   -0.6998   -0.5025   -1.8115 H   0  0  0  0  0  0  0  0  0  0  0  0
   -1.9953   -2.1311    1.9695 H   0  0  0  0  0  0  0  0  0  0  0  0
   -4.3920    0.4307    2.2440 H   0  0  0  0  0  0  0  0  0  0  0  0
   -0.6153   -3.4738    0.3331 H   0  0  0  0  0  0  0  0  0  0  0  0
    0.0318   -2.7388   -1.1155 H   0  0  0  0  0  0  0  0  0  0  0  0
    0.8799   -1.9658    1.7536 H   0  0  0  0  0  0  0  0  0  0  0  0
    1.7144   -3.1435    0.7661 H   0  0  0  0  0  0  0  0  0  0  0  0
    1.2292    0.4206    1.3866 H   0  0  0  0  0  0  0  0  0  0  0  0
    2.5715    2.1907    0.3371 H   0  0  0  0  0  0  0  0  0  0  0  0
    4.1829   -0.6789   -2.4463 H   0  0  0  0  0  0  0  0  0  0  0  0
    2.8441   -2.4513   -1.3944 H   0  0  0  0  0  0  0  0  0  0  0  0
    5.2691    2.0205   -1.2640 H   0  0  0  0  0  0  0  0  0  0  0  0
    4.4636    1.7647   -2.8317 H   0  0  0  0  0  0  0  0  0  0  0  0
    3.8045    2.9385   -1.6932 H   0  0  0  0  0  0  0  0  0  0  0  0
  1  2  1  0
  2  3  1  0
  3  4  2  0
  4  5  1  0
  5  6  2  0
  6  7  1  0
  7  8  2  0
  8  9  1  0
  6 10  1  0
 10 11  1  0
 11 12  1  0
 12 13  2  0
 13 14  1  0
 14 15  2  0
 15 16  1  0
 16 17  2  0
 15 18  1  0
  8  3  1  0
 17 12  1  0
  1 19  1  0
  1 20  1  0
  1 21  1  0
  4 22  1  0
  5 23  1  0
  7 24  1  0
  9 25  1  0
 10 26  1  0
 10 27  1  0
 11 28  1  0
 11 29  1  0
 13 30  1  0
 14 31  1  0
 16 32  1  0
 17 33  1  0
 18 34  1  0
 18 35  1  0
 18 36  1  0
M  END
