
     RDKit          3D

 34 35  0  0  0  0  0  0  0  0999 V2000
   -4.4524    1.6869   -1.0635 C   0  0  0  0  0  0  0  0  0  0  0  0
   -4.2135    0.6507   -0.1180 O   0  0  0  0  0  0  0  0  0  0  0  0
   -3.0123   -0.0031   -0.2192 C   0  0  0  0  0  0  0  0  0  0  0  0
   -2.0167    0.2421   -1.1626 C   0  0  0  0  0  0  0  0  0  0  0  0
   -0.8334   -0.5075   -1.1439 C   0  0  0  0  0  0  0  0  0  0  0  0
   -0.6297   -1.5101   -0.1843 C   0  0  0  0  0  0  0  0  0  0  0  0
   -1.6296   -1.7527    0.7638 C   0  0  0  0  0  0  0  0  0  0  0  0
   -2.8009   -1.0042    0.7353 C   0  0  0  0  0  0  0  0  0  0  0  0
   -3.7582   -1.2680    1.6783 O   0  0  0  0  0  0  0  0  0  0  0  0
    0.6602   -2.2952   -0.1535 C   0  0  0  0  0  0  0  0  0  0  0  0
    1.6830   -1.7511    0.8522 C   0  0  0  0  0  0  0  0  0  0  0  0
    2.3144   -0.4469    0.4232 C   0  0  0  0  0  0  0  0  0  0  0  0
    3.3758   -0.4378   -0.4937 C   0  0  0  0  0  0  0  0  0  0  0  0
    3.9474    0.7683   -0.9059 C   0  0  0  0  0  0  0  0  0  0  0  0
    3.4529    1.9670   -0.4024 C   0  0  0  0  0  0  0  0  0  0  0  0
    2.4000    1.9779    0.5035 C   0  0  0  0  0  0  0  0  0  0  0  0
    1.8308    0.7728    0.9169 C   0  0  0  0  0  0  0  0  0  0  0  0
    3.9797    3.1669   -0.7797 O   0  0  0  0  0  0  0  0  0  0  0  0
   -4.4727    1.2922   -2.0847 H   0  0  0  0  0  0  0  0  0  0  0  0
   -5.4385    2.1111   -0.8514 H   0  0  0  0  0  0  0  0  0  0  0  0
   -3.7157    2.4908   -0.9631 H   0  0  0  0  0  0  0  0  0  0  0  0
   -2.1198    1.0086   -1.9229 H   0  0  0  0  0  0  0  0  0  0  0  0
   -0.0599   -0.2922   -1.8793 H   0  0  0  0  0  0  0  0  0  0  0  0
   -1.5045   -2.5172    1.5255 H   0  0  0  0  0  0  0  0  0  0  0  0
   -4.4810   -0.6416    1.4793 H   0  0  0  0  0  0  0  0  0  0  0  0
    0.4217   -3.3339    0.1106 H   0  0  0  0  0  0  0  0  0  0  0  0
    1.0915   -2.3389   -1.1618 H   0  0  0  0  0  0  0  0  0  0  0  0
    2.4838   -2.4914    0.9792 H   0  0  0  0  0  0  0  0  0  0  0  0
    1.2281   -1.6351    1.8443 H   0  0  0  0  0  0  0  0  0  0  0  0
    3.7634   -1.3730   -0.8916 H   0  0  0  0  0  0  0  0  0  0  0  0
    4.7688    0.7513   -1.6147 H   0  0  0  0  0  0  0  0  0  0  0  0
    2.0207    2.9206    0.8867 H   0  0  0  0  0  0  0  0  0  0  0  0
    0.9997    0.7915    1.6190 H   0  0  0  0  0  0  0  0  0  0  0  0
    4.7171    3.0012   -1.3892 H   0  0  0  0  0  0  0  0  0  0  0  0
  1  2  1  0
  2  3  1  0
  3  4  2  0
  4  5  1  0
  5  6  2  0
  6  7  1  0
  7  8  2  0
  8  9  1  0
  6 10  1  0
 10 11  1  0
 11 12  1  0
 12 13  2  0
 13 14  1  0
 14 15  2  0
 15 16  1  0
 16 17  2  0
 15 18  1  0
  8  3  1  0
 17 12  1  0
  1 19  1  0
  1 20  1  0
  1 21  1  0
  4 22  1  0
  5 23  1  0
  7 24  1  0
  9 25  1  0
 10 26  1  0
 10 27  1  0
 11 28  1  0
 11 29  1  0
 13 30  1  0
 14 31  1  0
 16 32  1  0
 17 33  1  0
 18 34  1  0
M  END
