
     RDKit          3D

 37 38  0  0  0  0  0  0  0  0999 V2000
    4.3882    2.7710    0.3000 C   0  0  0  0  0  0  0  0  0  0  0  0
    4.4177    1.5270   -0.3880 O   0  0  0  0  0  0  0  0  0  0  0  0
    3.4897    0.5941   -0.0145 C   0  0  0  0  0  0  0  0  0  0  0  0
    2.4989    0.7625    0.9521 C   0  0  0  0  0  0  0  0  0  0  0  0
    1.6085   -0.2790    1.2360 C   0  0  0  0  0  0  0  0  0  0  0  0
    1.6973   -1.5014    0.5586 C   0  0  0  0  0  0  0  0  0  0  0  0
    2.6909   -1.6640   -0.4129 C   0  0  0  0  0  0  0  0  0  0  0  0
    3.5786   -0.6228   -0.6937 C   0  0  0  0  0  0  0  0  0  0  0  0
    0.7190   -2.6145    0.8517 C   0  0  0  0  0  0  0  0  0  0  0  0
   -0.4300   -2.7008   -0.1612 C   0  0  0  0  0  0  0  0  0  0  0  0
   -1.4166   -1.5622   -0.0513 C   0  0  0  0  0  0  0  0  0  0  0  0
   -1.3303   -0.4575   -0.9116 C   0  0  0  0  0  0  0  0  0  0  0  0
   -2.2276    0.6126   -0.8020 C   0  0  0  0  0  0  0  0  0  0  0  0
   -3.2231    0.5905    0.1726 C   0  0  0  0  0  0  0  0  0  0  0  0
   -3.2999   -0.5133    1.0293 C   0  0  0  0  0  0  0  0  0  0  0  0
   -2.4143   -1.5805    0.9293 C   0  0  0  0  0  0  0  0  0  0  0  0
   -4.2635   -0.5635    2.0009 O   0  0  0  0  0  0  0  0  0  0  0  0
   -4.1635    1.5637    0.3946 O   0  0  0  0  0  0  0  0  0  0  0  0
   -4.1221    2.6935   -0.4695 C   0  0  0  0  0  0  0  0  0  0  0  0
    5.1950    3.3930   -0.0996 H   0  0  0  0  0  0  0  0  0  0  0  0
    3.4442    3.2970    0.1235 H   0  0  0  0  0  0  0  0  0  0  0  0
    4.5721    2.6353    1.3709 H   0  0  0  0  0  0  0  0  0  0  0  0
    2.3858    1.6903    1.5020 H   0  0  0  0  0  0  0  0  0  0  0  0
    0.8343   -0.1245    1.9854 H   0  0  0  0  0  0  0  0  0  0  0  0
    2.7822   -2.6004   -0.9581 H   0  0  0  0  0  0  0  0  0  0  0  0
    4.3479   -0.7612   -1.4493 H   0  0  0  0  0  0  0  0  0  0  0  0
    1.2701   -3.5640    0.8453 H   0  0  0  0  0  0  0  0  0  0  0  0
    0.3283   -2.5065    1.8717 H   0  0  0  0  0  0  0  0  0  0  0  0
   -0.0398   -2.7556   -1.1856 H   0  0  0  0  0  0  0  0  0  0  0  0
   -0.9739   -3.6410   -0.0018 H   0  0  0  0  0  0  0  0  0  0  0  0
   -0.5496   -0.4175   -1.6696 H   0  0  0  0  0  0  0  0  0  0  0  0
   -2.1133    1.4429   -1.4902 H   0  0  0  0  0  0  0  0  0  0  0  0
   -2.5078   -2.4167    1.6164 H   0  0  0  0  0  0  0  0  0  0  0  0
   -4.7687    0.2656    1.8922 H   0  0  0  0  0  0  0  0  0  0  0  0
   -4.2952    2.4013   -1.5105 H   0  0  0  0  0  0  0  0  0  0  0  0
   -3.1783    3.2381   -0.3618 H   0  0  0  0  0  0  0  0  0  0  0  0
   -4.9312    3.3687   -0.1746 H   0  0  0  0  0  0  0  0  0  0  0  0
  1  2  1  0
  2  3  1  0
  3  4  2  0
  4  5  1  0
  5  6  2  0
  6  7  1  0
  7  8  2  0
  6  9  1  0
  9 10  1  0
 10 11  1  0
 11 12  2  0
 12 13  1  0
 13 14  2  0
 14 15  1  0
 15 16  2  0
 15 17  1  0
 14 18  1  0
 18 19  1  0
  8  3  1  0
 16 11  1  0
  1 20  1  0
  1 21  1  0
  1 22  1  0
  4 23  1  0
  5 24  1  0
  7 25  1  0
  8 26  1  0
  9 27  1  0
  9 28  1  0
 10 29  1  0
 10 30  1  0
 12 31  1  0
 13 32  1  0
 16 33  1  0
 17 34  1  0
 19 35  1  0
 19 36  1  0
 19 37  1  0
M  END
