
     RDKit          3D

 37 38  0  0  0  0  0  0  0  0999 V2000
    5.1916    2.0735    1.8846 O   0  0  0  0  0  0  0  0  0  0  0  0
    4.1161    2.3539    0.9990 C   0  0  0  0  0  0  0  0  0  0  0  0
    3.2839    1.1221    0.7681 C   0  0  0  0  0  0  0  0  0  0  0  0
    2.1712    0.8538    1.5744 C   0  0  0  0  0  0  0  0  0  0  0  0
    1.4192   -0.3067    1.3800 C   0  0  0  0  0  0  0  0  0  0  0  0
    1.7719   -1.2242    0.3828 C   0  0  0  0  0  0  0  0  0  0  0  0
    2.8898   -0.9600   -0.4181 C   0  0  0  0  0  0  0  0  0  0  0  0
    3.6427    0.1999   -0.2230 C   0  0  0  0  0  0  0  0  0  0  0  0
    0.9450   -2.4691    0.1595 C   0  0  0  0  0  0  0  0  0  0  0  0
   -0.0617   -2.3360   -0.9904 C   0  0  0  0  0  0  0  0  0  0  0  0
   -1.2214   -1.4218   -0.6729 C   0  0  0  0  0  0  0  0  0  0  0  0
   -1.2216   -0.0894   -1.1118 C   0  0  0  0  0  0  0  0  0  0  0  0
   -2.2833    0.7706   -0.8026 C   0  0  0  0  0  0  0  0  0  0  0  0
   -3.3588    0.3070   -0.0478 C   0  0  0  0  0  0  0  0  0  0  0  0
   -3.3494   -1.0224    0.3888 C   0  0  0  0  0  0  0  0  0  0  0  0
   -2.3007   -1.8842    0.0878 C   0  0  0  0  0  0  0  0  0  0  0  0
   -4.3890   -1.5080    1.1361 O   0  0  0  0  0  0  0  0  0  0  0  0
   -4.4591    1.0335    0.3293 O   0  0  0  0  0  0  0  0  0  0  0  0
   -4.5034    2.3881   -0.1044 C   0  0  0  0  0  0  0  0  0  0  0  0
    5.0859    1.1585    2.1978 H   0  0  0  0  0  0  0  0  0  0  0  0
    3.5111    3.1583    1.4304 H   0  0  0  0  0  0  0  0  0  0  0  0
    4.5280    2.7270    0.0554 H   0  0  0  0  0  0  0  0  0  0  0  0
    1.8805    1.5480    2.3602 H   0  0  0  0  0  0  0  0  0  0  0  0
    0.5489   -0.4877    2.0082 H   0  0  0  0  0  0  0  0  0  0  0  0
    3.1839   -1.6588   -1.1981 H   0  0  0  0  0  0  0  0  0  0  0  0
    4.5146    0.3802   -0.8487 H   0  0  0  0  0  0  0  0  0  0  0  0
    1.6295   -3.2983   -0.0624 H   0  0  0  0  0  0  0  0  0  0  0  0
    0.4355   -2.7483    1.0906 H   0  0  0  0  0  0  0  0  0  0  0  0
    0.4390   -1.9962   -1.9061 H   0  0  0  0  0  0  0  0  0  0  0  0
   -0.4650   -3.3297   -1.2257 H   0  0  0  0  0  0  0  0  0  0  0  0
   -0.3826    0.2930   -1.6908 H   0  0  0  0  0  0  0  0  0  0  0  0
   -2.2311    1.7918   -1.1638 H   0  0  0  0  0  0  0  0  0  0  0  0
   -2.3322   -2.9082    0.4492 H   0  0  0  0  0  0  0  0  0  0  0  0
   -5.0042   -0.7542    1.2247 H   0  0  0  0  0  0  0  0  0  0  0  0
   -4.5186    2.4526   -1.1974 H   0  0  0  0  0  0  0  0  0  0  0  0
   -5.4340    2.8272    0.2678 H   0  0  0  0  0  0  0  0  0  0  0  0
   -3.6722    2.9641    0.3157 H   0  0  0  0  0  0  0  0  0  0  0  0
  1  2  1  0
  2  3  1  0
  3  4  2  0
  4  5  1  0
  5  6  2  0
  6  7  1  0
  7  8  2  0
  6  9  1  0
  9 10  1  0
 10 11  1  0
 11 12  2  0
 12 13  1  0
 13 14  2  0
 14 15  1  0
 15 16  2  0
 15 17  1  0
 14 18  1  0
 18 19  1  0
  8  3  1  0
 16 11  1  0
  1 20  1  0
  2 21  1  0
  2 22  1  0
  4 23  1  0
  5 24  1  0
  7 25  1  0
  8 26  1  0
  9 27  1  0
  9 28  1  0
 10 29  1  0
 10 30  1  0
 12 31  1  0
 13 32  1  0
 16 33  1  0
 17 34  1  0
 19 35  1  0
 19 36  1  0
 19 37  1  0
M  END
