
     RDKit          3D

137144  0  0  0  0  0  0  0  0999 V2000
   -4.2381   -4.7868   -1.0003 O   0  0  0  0  0  0  0  0  0  0  0  0
   -3.3265   -3.6926   -1.0979 C   0  0  0  0  0  0  0  0  0  0  0  0
   -3.5606   -2.9373   -2.4132 C   0  0  0  0  0  0  0  0  0  0  0  0
   -2.5760   -1.9263   -2.6405 O   0  0  0  0  0  0  0  0  0  0  0  0
   -2.7285   -0.7288   -1.8681 C   0  0  0  0  0  0  0  0  0  0  0  0
   -1.7330    0.1985   -2.3061 O   0  0  0  0  0  0  0  0  0  0  0  0
   -0.4760    0.1300   -1.6503 C   0  0  0  0  0  0  0  0  0  0  0  0
    0.2236   -1.2381   -1.7532 C   0  0  0  0  0  0  0  0  0  0  0  0
    1.6344   -1.2391   -1.1414 C   0  0  0  0  0  0  0  0  0  0  0  0
    1.7260   -0.4668    0.2060 C   0  0  0  0  0  0  0  0  0  0  0  0
    0.9244    0.8688    0.1401 C   0  0  0  0  0  0  0  0  0  0  0  0
   -0.5462    0.5482   -0.1849 C   0  0  0  0  0  0  0  0  0  0  0  0
    1.3012    1.7569   -1.0699 C   0  0  0  0  0  0  0  0  0  0  0  0
    0.4351    1.2249   -2.1908 C   0  0  0  0  0  0  0  0  0  0  0  0
    0.4513    1.7041   -3.4427 C   0  0  0  0  0  0  0  0  0  0  0  0
    0.9950    1.5771    1.4853 C   0  0  0  0  0  0  0  0  0  0  0  0
    2.4003    1.8836    1.9673 C   0  0  0  0  0  0  0  0  0  0  0  0
    3.5582    1.1489    1.2518 C   0  0  0  0  0  0  0  0  0  0  0  0
    3.1910   -0.3346    0.8435 C   0  0  0  0  0  0  0  0  0  0  0  0
    4.2505   -0.9009   -0.1395 C   0  0  0  0  0  0  0  0  0  0  0  0
    3.2184   -1.2107    2.1296 C   0  0  0  0  0  0  0  0  0  0  0  0
    4.5247   -1.1312    2.9163 C   0  0  0  0  0  0  0  0  0  0  0  0
    4.8936    0.3008    3.2857 C   0  0  0  0  0  0  0  0  0  0  0  0
    4.8946    1.2900    2.0945 C   0  0  0  0  0  0  0  0  0  0  0  0
    5.0851    2.7157    2.6779 C   0  0  0  0  0  0  0  0  0  0  0  0
    6.1102    1.1566    1.1650 C   0  0  0  0  0  0  0  0  0  0  0  0
    6.2215    1.7489    0.0953 O   0  0  0  0  0  0  0  0  0  0  0  0
    7.0707    0.3462    1.6655 O   0  0  0  0  0  0  0  0  0  0  0  0
    8.1942    0.0883    0.8017 C   0  0  0  0  0  0  0  0  0  0  0  0
    8.8754   -1.0492    1.3379 O   0  0  0  0  0  0  0  0  0  0  0  0
    9.9388   -1.5376    0.4995 C   0  0  0  0  0  0  0  0  0  0  0  0
    9.4303   -2.6943   -0.3705 C   0  0  0  0  0  0  0  0  0  0  0  0
   10.5122   -3.4572   -0.8964 O   0  0  0  0  0  0  0  0  0  0  0  0
   10.6549   -0.4183   -0.2880 C   0  0  0  0  0  0  0  0  0  0  0  0
   10.6063    0.8700    0.5416 C   0  0  0  0  0  0  0  0  0  0  0  0
    9.1477    1.3135    0.7751 C   0  0  0  0  0  0  0  0  0  0  0  0
    8.8052    2.2689   -0.2564 O   0  0  0  0  0  0  0  0  0  0  0  0
   11.3296    1.9112   -0.1347 O   0  0  0  0  0  0  0  0  0  0  0  0
   10.0143   -0.1698   -1.5472 O   0  0  0  0  0  0  0  0  0  0  0  0
   -4.1095   -0.0868   -2.1316 C   0  0  0  0  0  0  0  0  0  0  0  0
   -5.2180   -1.1024   -1.8120 C   0  0  0  0  0  0  0  0  0  0  0  0
   -4.9893   -2.3881   -2.6157 C   0  0  0  0  0  0  0  0  0  0  0  0
   -6.0284   -3.3387   -2.3601 O   0  0  0  0  0  0  0  0  0  0  0  0
   -5.1833   -1.3322   -0.3920 O   0  0  0  0  0  0  0  0  0  0  0  0
   -6.4198   -1.7627    0.1711 C   0  0  0  0  0  0  0  0  0  0  0  0
   -6.3110   -3.1318    0.5574 O   0  0  0  0  0  0  0  0  0  0  0  0
   -7.5598   -3.6834    1.0274 C   0  0  0  0  0  0  0  0  0  0  0  0
   -8.2901   -4.4057   -0.1148 C   0  0  0  0  0  0  0  0  0  0  0  0
   -8.5654   -3.5285   -1.2058 O   0  0  0  0  0  0  0  0  0  0  0  0
   -8.4537   -2.6482    1.7387 C   0  0  0  0  0  0  0  0  0  0  0  0
   -7.5568   -1.6216    2.4322 C   0  0  0  0  0  0  0  0  0  0  0  0
   -6.7127   -0.8705    1.4002 C   0  0  0  0  0  0  0  0  0  0  0  0
   -5.5089   -0.4265    2.0536 O   0  0  0  0  0  0  0  0  0  0  0  0
   -8.3678   -0.7020    3.1823 O   0  0  0  0  0  0  0  0  0  0  0  0
   -9.2930   -3.2910    2.7035 O   0  0  0  0  0  0  0  0  0  0  0  0
   -4.3370    1.0451   -1.2733 O   0  0  0  0  0  0  0  0  0  0  0  0
   -4.6974    2.2386   -1.9492 C   0  0  0  0  0  0  0  0  0  0  0  0
   -3.5690    3.0508   -2.2291 O   0  0  0  0  0  0  0  0  0  0  0  0
   -3.0004    3.7707   -1.1151 C   0  0  0  0  0  0  0  0  0  0  0  0
   -2.9492    5.2442   -1.5557 C   0  0  0  0  0  0  0  0  0  0  0  0
   -2.3734    6.0794   -0.5631 O   0  0  0  0  0  0  0  0  0  0  0  0
   -3.7044    3.6024    0.2510 C   0  0  0  0  0  0  0  0  0  0  0  0
   -5.2310    3.6352    0.1361 C   0  0  0  0  0  0  0  0  0  0  0  0
   -5.7652    3.0336   -1.1715 C   0  0  0  0  0  0  0  0  0  0  0  0
   -6.9580    2.2706   -0.9012 O   0  0  0  0  0  0  0  0  0  0  0  0
   -5.7986    2.9675    1.2806 O   0  0  0  0  0  0  0  0  0  0  0  0
   -3.3143    2.3639    0.8793 O   0  0  0  0  0  0  0  0  0  0  0  0
   -4.2293   -5.0611   -0.0613 H   0  0  0  0  0  0  0  0  0  0  0  0
   -3.4425   -3.0498   -0.2212 H   0  0  0  0  0  0  0  0  0  0  0  0
   -2.3040   -4.0864   -1.0687 H   0  0  0  0  0  0  0  0  0  0  0  0
   -3.4134   -3.6851   -3.2035 H   0  0  0  0  0  0  0  0  0  0  0  0
   -2.6090   -0.9423   -0.8027 H   0  0  0  0  0  0  0  0  0  0  0  0
   -0.3727   -1.9972   -1.2307 H   0  0  0  0  0  0  0  0  0  0  0  0
    0.2731   -1.5663   -2.7993 H   0  0  0  0  0  0  0  0  0  0  0  0
    2.3168   -0.8045   -1.8795 H   0  0  0  0  0  0  0  0  0  0  0  0
    1.9395   -2.2822   -0.9985 H   0  0  0  0  0  0  0  0  0  0  0  0
    1.1555   -1.1009    0.9034 H   0  0  0  0  0  0  0  0  0  0  0  0
   -0.9554   -0.2314    0.4676 H   0  0  0  0  0  0  0  0  0  0  0  0
   -1.1863    1.4275   -0.0605 H   0  0  0  0  0  0  0  0  0  0  0  0
    1.0494    2.8068   -0.8805 H   0  0  0  0  0  0  0  0  0  0  0  0
    2.3587    1.6883   -1.3376 H   0  0  0  0  0  0  0  0  0  0  0  0
   -0.2174    1.3025   -4.1988 H   0  0  0  0  0  0  0  0  0  0  0  0
    1.1208    2.5062   -3.7342 H   0  0  0  0  0  0  0  0  0  0  0  0
    0.5047    0.9480    2.2421 H   0  0  0  0  0  0  0  0  0  0  0  0
    0.4121    2.5074    1.4656 H   0  0  0  0  0  0  0  0  0  0  0  0
    2.4248    1.6907    3.0465 H   0  0  0  0  0  0  0  0  0  0  0  0
    2.5586    2.9643    1.8548 H   0  0  0  0  0  0  0  0  0  0  0  0
    3.7204    1.6972    0.3160 H   0  0  0  0  0  0  0  0  0  0  0  0
    4.3263   -0.2820   -1.0397 H   0  0  0  0  0  0  0  0  0  0  0  0
    5.2502   -0.9674    0.2888 H   0  0  0  0  0  0  0  0  0  0  0  0
    4.0190   -1.9285   -0.4381 H   0  0  0  0  0  0  0  0  0  0  0  0
    2.4019   -0.9085    2.7991 H   0  0  0  0  0  0  0  0  0  0  0  0
    3.0275   -2.2604    1.8709 H   0  0  0  0  0  0  0  0  0  0  0  0
    5.3397   -1.6036    2.3578 H   0  0  0  0  0  0  0  0  0  0  0  0
    4.4181   -1.7182    3.8361 H   0  0  0  0  0  0  0  0  0  0  0  0
    5.8656    0.2969    3.7952 H   0  0  0  0  0  0  0  0  0  0  0  0
    4.1745    0.6431    4.0424 H   0  0  0  0  0  0  0  0  0  0  0  0
    6.0809    2.8261    3.1265 H   0  0  0  0  0  0  0  0  0  0  0  0
    4.3579    2.9478    3.4632 H   0  0  0  0  0  0  0  0  0  0  0  0
    4.9954    3.4794    1.8969 H   0  0  0  0  0  0  0  0  0  0  0  0
    7.8102   -0.1640   -0.1952 H   0  0  0  0  0  0  0  0  0  0  0  0
   10.6738   -1.9496    1.2022 H   0  0  0  0  0  0  0  0  0  0  0  0
    8.8186   -2.3343   -1.2035 H   0  0  0  0  0  0  0  0  0  0  0  0
    8.7861   -3.3615    0.2138 H   0  0  0  0  0  0  0  0  0  0  0  0
   10.7688   -4.0994   -0.2142 H   0  0  0  0  0  0  0  0  0  0  0  0
   11.6850   -0.7098   -0.5188 H   0  0  0  0  0  0  0  0  0  0  0  0
   11.0998    0.6936    1.5042 H   0  0  0  0  0  0  0  0  0  0  0  0
    9.0899    1.8666    1.7198 H   0  0  0  0  0  0  0  0  0  0  0  0
    7.8255    2.3096   -0.3099 H   0  0  0  0  0  0  0  0  0  0  0  0
   10.6309    2.4834   -0.5227 H   0  0  0  0  0  0  0  0  0  0  0  0
   10.4873    0.5886   -1.9414 H   0  0  0  0  0  0  0  0  0  0  0  0
   -4.1618    0.1967   -3.1920 H   0  0  0  0  0  0  0  0  0  0  0  0
   -6.1844   -0.6511   -2.0683 H   0  0  0  0  0  0  0  0  0  0  0  0
   -5.0850   -2.1175   -3.6763 H   0  0  0  0  0  0  0  0  0  0  0  0
   -5.5820   -4.1591   -2.0349 H   0  0  0  0  0  0  0  0  0  0  0  0
   -7.2403   -1.6406   -0.5418 H   0  0  0  0  0  0  0  0  0  0  0  0
   -7.2840   -4.4591    1.7538 H   0  0  0  0  0  0  0  0  0  0  0  0
   -9.2382   -4.8258    0.2340 H   0  0  0  0  0  0  0  0  0  0  0  0
   -7.6758   -5.2265   -0.5005 H   0  0  0  0  0  0  0  0  0  0  0  0
   -7.7408   -3.4970   -1.7423 H   0  0  0  0  0  0  0  0  0  0  0  0
   -9.1239   -2.1373    1.0371 H   0  0  0  0  0  0  0  0  0  0  0  0
   -6.9226   -2.1243    3.1719 H   0  0  0  0  0  0  0  0  0  0  0  0
   -7.2127    0.0451    1.0650 H   0  0  0  0  0  0  0  0  0  0  0  0
   -4.8552   -0.3226    1.3291 H   0  0  0  0  0  0  0  0  0  0  0  0
   -7.7391   -0.0616    3.5731 H   0  0  0  0  0  0  0  0  0  0  0  0
   -9.5377   -2.5873    3.3384 H   0  0  0  0  0  0  0  0  0  0  0  0
   -5.1570    1.9803   -2.9108 H   0  0  0  0  0  0  0  0  0  0  0  0
   -1.9684    3.4152   -1.0106 H   0  0  0  0  0  0  0  0  0  0  0  0
   -3.9539    5.6171   -1.7812 H   0  0  0  0  0  0  0  0  0  0  0  0
   -2.3606    5.3329   -2.4762 H   0  0  0  0  0  0  0  0  0  0  0  0
   -2.1583    6.9275   -0.9900 H   0  0  0  0  0  0  0  0  0  0  0  0
   -3.3783    4.3718    0.9578 H   0  0  0  0  0  0  0  0  0  0  0  0
   -5.5724    4.6756    0.1871 H   0  0  0  0  0  0  0  0  0  0  0  0
   -6.0632    3.8760   -1.8087 H   0  0  0  0  0  0  0  0  0  0  0  0
   -7.3421    2.0201   -1.7602 H   0  0  0  0  0  0  0  0  0  0  0  0
   -6.6003    2.5192    0.9326 H   0  0  0  0  0  0  0  0  0  0  0  0
   -4.0678    2.1391    1.4646 H   0  0  0  0  0  0  0  0  0  0  0  0
  1  2  1  0
  2  3  1  0
  3  4  1  0
  4  5  1  0
  5  6  1  0
  6  7  1  0
  7  8  1  0
  8  9  1  0
  9 10  1  0
 10 11  1  0
 11 12  1  0
 11 13  1  0
 13 14  1  0
 14 15  2  0
 11 16  1  0
 16 17  1  0
 17 18  1  0
 18 19  1  0
 19 20  1  0
 19 21  1  0
 21 22  1  0
 22 23  1  0
 23 24  1  0
 24 25  1  0
 24 26  1  0
 26 27  2  0
 26 28  1  0
 28 29  1  0
 29 30  1  0
 30 31  1  0
 31 32  1  0
 32 33  1  0
 31 34  1  0
 34 35  1  0
 35 36  1  0
 36 37  1  0
 35 38  1  0
 34 39  1  0
  5 40  1  0
 40 41  1  0
 41 42  1  0
 42 43  1  0
 41 44  1  0
 44 45  1  0
 45 46  1  0
 46 47  1  0
 47 48  1  0
 48 49  1  0
 47 50  1  0
 50 51  1  0
 51 52  1  0
 52 53  1  0
 51 54  1  0
 50 55  1  0
 40 56  1  0
 56 57  1  0
 57 58  1  0
 58 59  1  0
 59 60  1  0
 60 61  1  0
 59 62  1  0
 62 63  1  0
 63 64  1  0
 64 65  1  0
 63 66  1  0
 62 67  1  0
 42  3  1  0
 52 45  1  0
 64 57  1  0
 12  7  1  0
 24 18  1  0
 36 29  1  0
 14  7  1  0
 19 10  1  0
  1 68  1  0
  2 69  1  0
  2 70  1  0
  3 71  1  0
  5 72  1  0
  8 73  1  0
  8 74  1  0
  9 75  1  0
  9 76  1  0
 10 77  1  0
 12 78  1  0
 12 79  1  0
 13 80  1  0
 13 81  1  0
 15 82  1  0
 15 83  1  0
 16 84  1  0
 16 85  1  0
 17 86  1  0
 17 87  1  0
 18 88  1  0
 20 89  1  0
 20 90  1  0
 20 91  1  0
 21 92  1  0
 21 93  1  0
 22 94  1  0
 22 95  1  0
 23 96  1  0
 23 97  1  0
 25 98  1  0
 25 99  1  0
 25100  1  0
 29101  1  0
 31102  1  0
 32103  1  0
 32104  1  0
 33105  1  0
 34106  1  0
 35107  1  0
 36108  1  0
 37109  1  0
 38110  1  0
 39111  1  0
 40112  1  0
 41113  1  0
 42114  1  0
 43115  1  0
 45116  1  0
 47117  1  0
 48118  1  0
 48119  1  0
 49120  1  0
 50121  1  0
 51122  1  0
 52123  1  0
 53124  1  0
 54125  1  0
 55126  1  0
 57127  1  0
 59128  1  0
 60129  1  0
 60130  1  0
 61131  1  0
 62132  1  0
 63133  1  0
 64134  1  0
 65135  1  0
 66136  1  0
 67137  1  0
M  END
