
     RDKit          3D

 39 40  0  0  0  0  0  0  0  0999 V2000
    5.1612    2.7417    1.4180 C   0  0  0  0  0  0  0  0  0  0  0  0
    4.1550    1.7499    1.2095 O   0  0  0  0  0  0  0  0  0  0  0  0
    4.2312    1.1334    0.0033 C   0  0  0  0  0  0  0  0  0  0  0  0
    5.0577    1.3659   -0.8652 O   0  0  0  0  0  0  0  0  0  0  0  0
    3.1567    0.1130   -0.1365 C   0  0  0  0  0  0  0  0  0  0  0  0
    3.1056   -0.6355   -1.3196 C   0  0  0  0  0  0  0  0  0  0  0  0
    2.1144   -1.6032   -1.5017 C   0  0  0  0  0  0  0  0  0  0  0  0
    1.1614   -1.8384   -0.5026 C   0  0  0  0  0  0  0  0  0  0  0  0
    1.2130   -1.0868    0.6789 C   0  0  0  0  0  0  0  0  0  0  0  0
    2.2034   -0.1177    0.8628 C   0  0  0  0  0  0  0  0  0  0  0  0
    0.0746   -2.8690   -0.7070 C   0  0  0  0  0  0  0  0  0  0  0  0
   -1.1007   -2.3583   -1.5507 C   0  0  0  0  0  0  0  0  0  0  0  0
   -1.9450   -1.3246   -0.8437 C   0  0  0  0  0  0  0  0  0  0  0  0
   -1.7790    0.0413   -1.1169 C   0  0  0  0  0  0  0  0  0  0  0  0
   -2.5419    1.0074   -0.4482 C   0  0  0  0  0  0  0  0  0  0  0  0
   -3.4810    0.6175    0.5044 C   0  0  0  0  0  0  0  0  0  0  0  0
   -3.6386   -0.7467    0.7728 C   0  0  0  0  0  0  0  0  0  0  0  0
   -2.8869   -1.7137    0.1149 C   0  0  0  0  0  0  0  0  0  0  0  0
   -4.5497   -1.1630    1.7064 O   0  0  0  0  0  0  0  0  0  0  0  0
   -4.2913    1.4495    1.2336 O   0  0  0  0  0  0  0  0  0  0  0  0
   -4.1627    2.8435    0.9783 C   0  0  0  0  0  0  0  0  0  0  0  0
    5.0123    3.1713    2.4125 H   0  0  0  0  0  0  0  0  0  0  0  0
    5.0695    3.5426    0.6775 H   0  0  0  0  0  0  0  0  0  0  0  0
    6.1579    2.2908    1.3813 H   0  0  0  0  0  0  0  0  0  0  0  0
    3.8388   -0.4676   -2.1064 H   0  0  0  0  0  0  0  0  0  0  0  0
    2.0919   -2.1718   -2.4290 H   0  0  0  0  0  0  0  0  0  0  0  0
    0.4726   -1.2445    1.4615 H   0  0  0  0  0  0  0  0  0  0  0  0
    2.2139    0.4501    1.7897 H   0  0  0  0  0  0  0  0  0  0  0  0
   -0.2773   -3.2343    0.2663 H   0  0  0  0  0  0  0  0  0  0  0  0
    0.5185   -3.7402   -1.2063 H   0  0  0  0  0  0  0  0  0  0  0  0
   -1.7468   -3.2069   -1.8112 H   0  0  0  0  0  0  0  0  0  0  0  0
   -0.7425   -1.9550   -2.5066 H   0  0  0  0  0  0  0  0  0  0  0  0
   -1.0414    0.3648   -1.8493 H   0  0  0  0  0  0  0  0  0  0  0  0
   -2.3713    2.0496   -0.6953 H   0  0  0  0  0  0  0  0  0  0  0  0
   -3.0400   -2.7621    0.3554 H   0  0  0  0  0  0  0  0  0  0  0  0
   -4.9627   -0.3406    2.0343 H   0  0  0  0  0  0  0  0  0  0  0  0
   -4.4215    3.0806   -0.0589 H   0  0  0  0  0  0  0  0  0  0  0  0
   -3.1576    3.1991    1.2279 H   0  0  0  0  0  0  0  0  0  0  0  0
   -4.8716    3.3680    1.6263 H   0  0  0  0  0  0  0  0  0  0  0  0
  1  2  1  0
  2  3  1  0
  3  4  2  0
  3  5  1  0
  5  6  2  0
  6  7  1  0
  7  8  2  0
  8  9  1  0
  9 10  2  0
  8 11  1  0
 11 12  1  0
 12 13  1  0
 13 14  2  0
 14 15  1  0
 15 16  2  0
 16 17  1  0
 17 18  2  0
 17 19  1  0
 16 20  1  0
 20 21  1  0
 10  5  1  0
 18 13  1  0
  1 22  1  0
  1 23  1  0
  1 24  1  0
  6 25  1  0
  7 26  1  0
  9 27  1  0
 10 28  1  0
 11 29  1  0
 11 30  1  0
 12 31  1  0
 12 32  1  0
 14 33  1  0
 15 34  1  0
 18 35  1  0
 19 36  1  0
 21 37  1  0
 21 38  1  0
 21 39  1  0
M  END
