
     RDKit          3D

 36 37  0  0  0  0  0  0  0  0999 V2000
    6.4339    0.9394   -0.2296 C   0  0  0  0  0  0  0  0  0  0  0  0
    5.6684   -0.2110    0.1099 O   0  0  0  0  0  0  0  0  0  0  0  0
    4.3170   -0.1334   -0.1091 C   0  0  0  0  0  0  0  0  0  0  0  0
    3.6257    0.9633   -0.6207 C   0  0  0  0  0  0  0  0  0  0  0  0
    2.2362    0.8997   -0.7906 C   0  0  0  0  0  0  0  0  0  0  0  0
    1.5225   -0.2606   -0.4563 C   0  0  0  0  0  0  0  0  0  0  0  0
    2.2176   -1.3585    0.0621 C   0  0  0  0  0  0  0  0  0  0  0  0
    3.5960   -1.2843    0.2274 C   0  0  0  0  0  0  0  0  0  0  0  0
    4.2442   -2.3778    0.7363 O   0  0  0  0  0  0  0  0  0  0  0  0
    0.0242   -0.3154   -0.6225 C   0  0  0  0  0  0  0  0  0  0  0  0
   -0.7013    0.1151    0.6553 C   0  0  0  0  0  0  0  0  0  0  0  0
   -2.2008    0.0653    0.4877 C   0  0  0  0  0  0  0  0  0  0  0  0
   -2.9055   -1.1148    0.7613 C   0  0  0  0  0  0  0  0  0  0  0  0
   -4.2914   -1.1694    0.5895 C   0  0  0  0  0  0  0  0  0  0  0  0
   -4.9871   -0.0427    0.1371 C   0  0  0  0  0  0  0  0  0  0  0  0
   -4.2866    1.1362   -0.1428 C   0  0  0  0  0  0  0  0  0  0  0  0
   -2.9013    1.1888    0.0296 C   0  0  0  0  0  0  0  0  0  0  0  0
   -6.4565   -0.0511   -0.0614 C   0  0  0  0  0  0  0  0  0  0  0  0
   -7.1290    0.8850   -0.4530 O   0  0  0  0  0  0  0  0  0  0  0  0
   -7.0190   -1.2350    0.2400 O   0  0  0  0  0  0  0  0  0  0  0  0
    6.3627    1.1592   -1.3000 H   0  0  0  0  0  0  0  0  0  0  0  0
    6.1362    1.8034    0.3736 H   0  0  0  0  0  0  0  0  0  0  0  0
    7.4821    0.7212   -0.0038 H   0  0  0  0  0  0  0  0  0  0  0  0
    4.1306    1.8826   -0.8968 H   0  0  0  0  0  0  0  0  0  0  0  0
    1.7126    1.7668   -1.1887 H   0  0  0  0  0  0  0  0  0  0  0  0
    1.6963   -2.2709    0.3382 H   0  0  0  0  0  0  0  0  0  0  0  0
    5.1853   -2.1176    0.7662 H   0  0  0  0  0  0  0  0  0  0  0  0
   -0.2711   -1.3337   -0.9079 H   0  0  0  0  0  0  0  0  0  0  0  0
   -0.2723    0.3231   -1.4652 H   0  0  0  0  0  0  0  0  0  0  0  0
   -0.4097   -0.5257    1.4979 H   0  0  0  0  0  0  0  0  0  0  0  0
   -0.4013    1.1316    0.9424 H   0  0  0  0  0  0  0  0  0  0  0  0
   -2.3789   -2.0007    1.1112 H   0  0  0  0  0  0  0  0  0  0  0  0
   -4.8170   -2.0951    0.8105 H   0  0  0  0  0  0  0  0  0  0  0  0
   -4.8171    2.0181   -0.4968 H   0  0  0  0  0  0  0  0  0  0  0  0
   -2.3733    2.1132   -0.1953 H   0  0  0  0  0  0  0  0  0  0  0  0
   -7.9724   -1.0917    0.0644 H   0  0  0  0  0  0  0  0  0  0  0  0
  1  2  1  0
  2  3  1  0
  3  4  2  0
  4  5  1  0
  5  6  2  0
  6  7  1  0
  7  8  2  0
  8  9  1  0
  6 10  1  0
 10 11  1  0
 11 12  1  0
 12 13  2  0
 13 14  1  0
 14 15  2  0
 15 16  1  0
 16 17  2  0
 15 18  1  0
 18 19  2  0
 18 20  1  0
  8  3  1  0
 17 12  1  0
  1 21  1  0
  1 22  1  0
  1 23  1  0
  4 24  1  0
  5 25  1  0
  7 26  1  0
  9 27  1  0
 10 28  1  0
 10 29  1  0
 11 30  1  0
 11 31  1  0
 13 32  1  0
 14 33  1  0
 16 34  1  0
 17 35  1  0
 20 36  1  0
M  END
