
     RDKit          3D

 33 34  0  0  0  0  0  0  0  0999 V2000
    5.7957    0.3075   -0.6485 C   0  0  0  0  0  0  0  0  0  0  0  0
    4.9673   -0.5503    0.1278 O   0  0  0  0  0  0  0  0  0  0  0  0
    3.6355   -0.2287    0.1840 C   0  0  0  0  0  0  0  0  0  0  0  0
    3.0189    0.8471   -0.4524 C   0  0  0  0  0  0  0  0  0  0  0  0
    1.6408    1.0532   -0.3051 C   0  0  0  0  0  0  0  0  0  0  0  0
    0.8641    0.1910    0.4827 C   0  0  0  0  0  0  0  0  0  0  0  0
    1.4839   -0.8914    1.1163 C   0  0  0  0  0  0  0  0  0  0  0  0
    2.8518   -1.0872    0.9626 C   0  0  0  0  0  0  0  0  0  0  0  0
    3.4255   -2.1558    1.5979 O   0  0  0  0  0  0  0  0  0  0  0  0
   -0.6226    0.4066    0.6208 C   0  0  0  0  0  0  0  0  0  0  0  0
   -1.4066   -0.3746   -0.4372 C   0  0  0  0  0  0  0  0  0  0  0  0
   -2.8943   -0.1549   -0.3026 C   0  0  0  0  0  0  0  0  0  0  0  0
   -3.5233    0.8896   -0.9970 C   0  0  0  0  0  0  0  0  0  0  0  0
   -4.8954    1.1021   -0.8568 C   0  0  0  0  0  0  0  0  0  0  0  0
   -5.6356    0.2748   -0.0210 C   0  0  0  0  0  0  0  0  0  0  0  0
   -5.0299   -0.7613    0.6793 C   0  0  0  0  0  0  0  0  0  0  0  0
   -3.6581   -0.9761    0.5410 C   0  0  0  0  0  0  0  0  0  0  0  0
   -6.9524    0.4806    0.1130 F   0  0  0  0  0  0  0  0  0  0  0  0
    6.8193   -0.0750   -0.5904 H   0  0  0  0  0  0  0  0  0  0  0  0
    5.7973    1.3257   -0.2455 H   0  0  0  0  0  0  0  0  0  0  0  0
    5.4960    0.2981   -1.7017 H   0  0  0  0  0  0  0  0  0  0  0  0
    3.5746    1.5440   -1.0703 H   0  0  0  0  0  0  0  0  0  0  0  0
    1.1758    1.8968   -0.8118 H   0  0  0  0  0  0  0  0  0  0  0  0
    0.9123   -1.5834    1.7286 H   0  0  0  0  0  0  0  0  0  0  0  0
    4.3726   -2.1058    1.3633 H   0  0  0  0  0  0  0  0  0  0  0  0
   -0.9386    0.1109    1.6300 H   0  0  0  0  0  0  0  0  0  0  0  0
   -0.8434    1.4796    0.5468 H   0  0  0  0  0  0  0  0  0  0  0  0
   -1.1911   -1.4486   -0.3610 H   0  0  0  0  0  0  0  0  0  0  0  0
   -1.0859   -0.0819   -1.4457 H   0  0  0  0  0  0  0  0  0  0  0  0
   -2.9480    1.5415   -1.6506 H   0  0  0  0  0  0  0  0  0  0  0  0
   -5.3903    1.9058   -1.3921 H   0  0  0  0  0  0  0  0  0  0  0  0
   -5.6280   -1.3932    1.3277 H   0  0  0  0  0  0  0  0  0  0  0  0
   -3.1878   -1.7868    1.0934 H   0  0  0  0  0  0  0  0  0  0  0  0
  1  2  1  0
  2  3  1  0
  3  4  2  0
  4  5  1  0
  5  6  2  0
  6  7  1  0
  7  8  2  0
  8  9  1  0
  6 10  1  0
 10 11  1  0
 11 12  1  0
 12 13  2  0
 13 14  1  0
 14 15  2  0
 15 16  1  0
 16 17  2  0
 15 18  1  0
  8  3  1  0
 17 12  1  0
  1 19  1  0
  1 20  1  0
  1 21  1  0
  4 22  1  0
  5 23  1  0
  7 24  1  0
  9 25  1  0
 10 26  1  0
 10 27  1  0
 11 28  1  0
 11 29  1  0
 13 30  1  0
 14 31  1  0
 16 32  1  0
 17 33  1  0
M  END
