
     RDKit          3D

 33 34  0  0  0  0  0  0  0  0999 V2000
   -5.7633    0.9726   -0.2254 C   0  0  0  0  0  0  0  0  0  0  0  0
   -4.9928    0.0313    0.5128 O   0  0  0  0  0  0  0  0  0  0  0  0
   -3.6553   -0.0308    0.2173 C   0  0  0  0  0  0  0  0  0  0  0  0
   -2.9816    0.7440   -0.7252 C   0  0  0  0  0  0  0  0  0  0  0  0
   -1.6049    0.5712   -0.9207 C   0  0  0  0  0  0  0  0  0  0  0  0
   -0.8866   -0.3798   -0.1812 C   0  0  0  0  0  0  0  0  0  0  0  0
   -1.5636   -1.1529    0.7681 C   0  0  0  0  0  0  0  0  0  0  0  0
   -2.9294   -0.9726    0.9547 C   0  0  0  0  0  0  0  0  0  0  0  0
   -3.5600   -1.7470    1.8914 O   0  0  0  0  0  0  0  0  0  0  0  0
    0.5992   -0.5469   -0.3820 C   0  0  0  0  0  0  0  0  0  0  0  0
    1.4010    0.3334    0.5806 C   0  0  0  0  0  0  0  0  0  0  0  0
    2.8878    0.1702    0.3768 C   0  0  0  0  0  0  0  0  0  0  0  0
    3.5761    0.9957   -0.5233 C   0  0  0  0  0  0  0  0  0  0  0  0
    4.9484    0.8318   -0.7248 C   0  0  0  0  0  0  0  0  0  0  0  0
    5.6365   -0.1607   -0.0304 C   0  0  0  0  0  0  0  0  0  0  0  0
    4.9643   -0.9918    0.8628 C   0  0  0  0  0  0  0  0  0  0  0  0
    3.5921   -0.8281    1.0646 C   0  0  0  0  0  0  0  0  0  0  0  0
    7.3270   -0.3627   -0.2798 Cl  0  0  0  0  0  0  0  0  0  0  0  0
   -6.7995    0.8985    0.1186 H   0  0  0  0  0  0  0  0  0  0  0  0
   -5.4223    1.9959   -0.0369 H   0  0  0  0  0  0  0  0  0  0  0  0
   -5.7504    0.7408   -1.2955 H   0  0  0  0  0  0  0  0  0  0  0  0
   -3.4909    1.4910   -1.3243 H   0  0  0  0  0  0  0  0  0  0  0  0
   -1.0949    1.1872   -1.6590 H   0  0  0  0  0  0  0  0  0  0  0  0
   -1.0380   -1.8943    1.3636 H   0  0  0  0  0  0  0  0  0  0  0  0
   -4.4950   -1.4658    1.8584 H   0  0  0  0  0  0  0  0  0  0  0  0
    0.8552   -0.3085   -1.4228 H   0  0  0  0  0  0  0  0  0  0  0  0
    0.8655   -1.6039   -0.2490 H   0  0  0  0  0  0  0  0  0  0  0  0
    1.1300    1.3895    0.4501 H   0  0  0  0  0  0  0  0  0  0  0  0
    1.1500    0.0927    1.6221 H   0  0  0  0  0  0  0  0  0  0  0  0
    3.0477    1.7721   -1.0724 H   0  0  0  0  0  0  0  0  0  0  0  0
    5.4722    1.4791   -1.4229 H   0  0  0  0  0  0  0  0  0  0  0  0
    5.5000   -1.7674    1.4033 H   0  0  0  0  0  0  0  0  0  0  0  0
    3.0755   -1.4841    1.7624 H   0  0  0  0  0  0  0  0  0  0  0  0
  1  2  1  0
  2  3  1  0
  3  4  2  0
  4  5  1  0
  5  6  2  0
  6  7  1  0
  7  8  2  0
  8  9  1  0
  6 10  1  0
 10 11  1  0
 11 12  1  0
 12 13  2  0
 13 14  1  0
 14 15  2  0
 15 16  1  0
 16 17  2  0
 15 18  1  0
  8  3  1  0
 17 12  1  0
  1 19  1  0
  1 20  1  0
  1 21  1  0
  4 22  1  0
  5 23  1  0
  7 24  1  0
  9 25  1  0
 10 26  1  0
 10 27  1  0
 11 28  1  0
 11 29  1  0
 13 30  1  0
 14 31  1  0
 16 32  1  0
 17 33  1  0
M  END
