
     RDKit          3D

 33 34  0  0  0  0  0  0  0  0999 V2000
    5.8265   -0.1208   -0.5521 C   0  0  0  0  0  0  0  0  0  0  0  0
    4.9127   -1.0057    0.0856 O   0  0  0  0  0  0  0  0  0  0  0  0
    3.6135   -0.5780    0.1827 C   0  0  0  0  0  0  0  0  0  0  0  0
    3.1049    0.6302   -0.2904 C   0  0  0  0  0  0  0  0  0  0  0  0
    1.7478    0.9349   -0.1203 C   0  0  0  0  0  0  0  0  0  0  0  0
    0.8848    0.0392    0.5280 C   0  0  0  0  0  0  0  0  0  0  0  0
    1.3960   -1.1755    0.9975 C   0  0  0  0  0  0  0  0  0  0  0  0
    2.7439   -1.4680    0.8225 C   0  0  0  0  0  0  0  0  0  0  0  0
    3.2105   -2.6653    1.2954 O   0  0  0  0  0  0  0  0  0  0  0  0
   -0.5794    0.3642    0.6900 C   0  0  0  0  0  0  0  0  0  0  0  0
   -1.4102   -0.1784   -0.4762 C   0  0  0  0  0  0  0  0  0  0  0  0
   -2.8745    0.1514   -0.3169 C   0  0  0  0  0  0  0  0  0  0  0  0
   -3.3974    1.3379   -0.8495 C   0  0  0  0  0  0  0  0  0  0  0  0
   -4.7484    1.6517   -0.6859 C   0  0  0  0  0  0  0  0  0  0  0  0
   -5.5800    0.7811    0.0152 C   0  0  0  0  0  0  0  0  0  0  0  0
   -5.0736   -0.3991    0.5550 C   0  0  0  0  0  0  0  0  0  0  0  0
   -3.7226   -0.7119    0.3907 C   0  0  0  0  0  0  0  0  0  0  0  0
   -7.4087    1.2060    0.2377 Br  0  0  0  0  0  0  0  0  0  0  0  0
    6.8114   -0.5976   -0.5468 H   0  0  0  0  0  0  0  0  0  0  0  0
    5.9105    0.8230   -0.0032 H   0  0  0  0  0  0  0  0  0  0  0  0
    5.5456    0.0512   -1.5964 H   0  0  0  0  0  0  0  0  0  0  0  0
    3.7303    1.3578   -0.7961 H   0  0  0  0  0  0  0  0  0  0  0  0
    1.3676    1.8818   -0.4988 H   0  0  0  0  0  0  0  0  0  0  0  0
    0.7552   -1.8960    1.4982 H   0  0  0  0  0  0  0  0  0  0  0  0
    4.1622   -2.6662    1.0749 H   0  0  0  0  0  0  0  0  0  0  0  0
   -0.7037    1.4518    0.7756 H   0  0  0  0  0  0  0  0  0  0  0  0
   -0.9382   -0.0479    1.6424 H   0  0  0  0  0  0  0  0  0  0  0  0
   -1.2912   -1.2668   -0.5598 H   0  0  0  0  0  0  0  0  0  0  0  0
   -1.0470    0.2304   -1.4284 H   0  0  0  0  0  0  0  0  0  0  0  0
   -2.7553    2.0251   -1.3962 H   0  0  0  0  0  0  0  0  0  0  0  0
   -5.1396    2.5739   -1.1068 H   0  0  0  0  0  0  0  0  0  0  0  0
   -5.7185   -1.0798    1.1040 H   0  0  0  0  0  0  0  0  0  0  0  0
   -3.3352   -1.6345    0.8181 H   0  0  0  0  0  0  0  0  0  0  0  0
  1  2  1  0
  2  3  1  0
  3  4  2  0
  4  5  1  0
  5  6  2  0
  6  7  1  0
  7  8  2  0
  8  9  1  0
  6 10  1  0
 10 11  1  0
 11 12  1  0
 12 13  2  0
 13 14  1  0
 14 15  2  0
 15 16  1  0
 16 17  2  0
 15 18  1  0
  8  3  1  0
 17 12  1  0
  1 19  1  0
  1 20  1  0
  1 21  1  0
  4 22  1  0
  5 23  1  0
  7 24  1  0
  9 25  1  0
 10 26  1  0
 10 27  1  0
 11 28  1  0
 11 29  1  0
 13 30  1  0
 14 31  1  0
 16 32  1  0
 17 33  1  0
M  END
