
     RDKit          3D

 38 39  0  0  0  0  0  0  0  0999 V2000
   -6.6953    0.4869   -1.3727 C   0  0  0  0  0  0  0  0  0  0  0  0
   -5.7077   -0.4293   -1.8312 O   0  0  0  0  0  0  0  0  0  0  0  0
   -4.4794   -0.3581   -1.2256 C   0  0  0  0  0  0  0  0  0  0  0  0
   -4.1078    0.5270   -0.2152 C   0  0  0  0  0  0  0  0  0  0  0  0
   -2.8100    0.4854    0.3113 C   0  0  0  0  0  0  0  0  0  0  0  0
   -1.8707   -0.4429   -0.1614 C   0  0  0  0  0  0  0  0  0  0  0  0
   -2.2438   -1.3268   -1.1795 C   0  0  0  0  0  0  0  0  0  0  0  0
   -3.5339   -1.2764   -1.6953 C   0  0  0  0  0  0  0  0  0  0  0  0
   -3.8657   -2.1570   -2.6901 O   0  0  0  0  0  0  0  0  0  0  0  0
   -0.4690   -0.4675    0.3960 C   0  0  0  0  0  0  0  0  0  0  0  0
    0.4690    0.4474   -0.3960 C   0  0  0  0  0  0  0  0  0  0  0  0
    1.8707    0.4227    0.1614 C   0  0  0  0  0  0  0  0  0  0  0  0
    2.8100   -0.5055   -0.3113 C   0  0  0  0  0  0  0  0  0  0  0  0
    4.1077   -0.5471    0.2152 C   0  0  0  0  0  0  0  0  0  0  0  0
    4.4794    0.3379    1.2256 C   0  0  0  0  0  0  0  0  0  0  0  0
    3.5339    1.2563    1.6953 C   0  0  0  0  0  0  0  0  0  0  0  0
    2.2438    1.3067    1.1795 C   0  0  0  0  0  0  0  0  0  0  0  0
    3.8657    2.1368    2.6901 O   0  0  0  0  0  0  0  0  0  0  0  0
    5.7077    0.4091    1.8312 O   0  0  0  0  0  0  0  0  0  0  0  0
    6.6953   -0.5070    1.3727 C   0  0  0  0  0  0  0  0  0  0  0  0
   -6.3890    1.5219   -1.5568 H   0  0  0  0  0  0  0  0  0  0  0  0
   -6.9250    0.3231   -0.3147 H   0  0  0  0  0  0  0  0  0  0  0  0
   -7.6105    0.3042   -1.9441 H   0  0  0  0  0  0  0  0  0  0  0  0
   -4.7963    1.2622    0.1869 H   0  0  0  0  0  0  0  0  0  0  0  0
   -2.5356    1.1863    1.0977 H   0  0  0  0  0  0  0  0  0  0  0  0
   -1.5399   -2.0540   -1.5745 H   0  0  0  0  0  0  0  0  0  0  0  0
   -4.7983   -1.9548   -2.8996 H   0  0  0  0  0  0  0  0  0  0  0  0
   -0.0945   -1.4997    0.3896 H   0  0  0  0  0  0  0  0  0  0  0  0
   -0.4932   -0.1708    1.4529 H   0  0  0  0  0  0  0  0  0  0  0  0
    0.4932    0.1506   -1.4529 H   0  0  0  0  0  0  0  0  0  0  0  0
    0.0945    1.4796   -0.3896 H   0  0  0  0  0  0  0  0  0  0  0  0
    2.5356   -1.2065   -1.0977 H   0  0  0  0  0  0  0  0  0  0  0  0
    4.7963   -1.2823   -0.1869 H   0  0  0  0  0  0  0  0  0  0  0  0
    1.5399    2.0339    1.5745 H   0  0  0  0  0  0  0  0  0  0  0  0
    4.7983    1.9346    2.8996 H   0  0  0  0  0  0  0  0  0  0  0  0
    7.6105   -0.3243    1.9440 H   0  0  0  0  0  0  0  0  0  0  0  0
    6.3890   -1.5421    1.5568 H   0  0  0  0  0  0  0  0  0  0  0  0
    6.9250   -0.3432    0.3147 H   0  0  0  0  0  0  0  0  0  0  0  0
  1  2  1  0
  2  3  1  0
  3  4  2  0
  4  5  1  0
  5  6  2  0
  6  7  1  0
  7  8  2  0
  8  9  1  0
  6 10  1  0
 10 11  1  0
 11 12  1  0
 12 13  2  0
 13 14  1  0
 14 15  2  0
 15 16  1  0
 16 17  2  0
 16 18  1  0
 15 19  1  0
 19 20  1  0
  8  3  1  0
 17 12  1  0
  1 21  1  0
  1 22  1  0
  1 23  1  0
  4 24  1  0
  5 25  1  0
  7 26  1  0
  9 27  1  0
 10 28  1  0
 10 29  1  0
 11 30  1  0
 11 31  1  0
 13 32  1  0
 14 33  1  0
 17 34  1  0
 18 35  1  0
 20 36  1  0
 20 37  1  0
 20 38  1  0
M  END
