
     RDKit          3D

 38 39  0  0  0  0  0  0  0  0999 V2000
    6.4410   -0.9087    1.3463 C   0  0  0  0  0  0  0  0  0  0  0  0
    5.2233   -1.2280    2.0096 O   0  0  0  0  0  0  0  0  0  0  0  0
    4.0764   -0.7079    1.4671 C   0  0  0  0  0  0  0  0  0  0  0  0
    3.9907    0.0908    0.3282 C   0  0  0  0  0  0  0  0  0  0  0  0
    2.7433    0.5521   -0.1130 C   0  0  0  0  0  0  0  0  0  0  0  0
    1.5687    0.2253    0.5804 C   0  0  0  0  0  0  0  0  0  0  0  0
    1.6561   -0.5809    1.7203 C   0  0  0  0  0  0  0  0  0  0  0  0
    2.8987   -1.0340    2.1487 C   0  0  0  0  0  0  0  0  0  0  0  0
    2.9473   -1.8203    3.2687 O   0  0  0  0  0  0  0  0  0  0  0  0
    0.2269    0.7080    0.0883 C   0  0  0  0  0  0  0  0  0  0  0  0
   -0.4220   -0.3028   -0.8613 C   0  0  0  0  0  0  0  0  0  0  0  0
   -1.7698    0.1758   -1.3462 C   0  0  0  0  0  0  0  0  0  0  0  0
   -1.8678    0.9383   -2.5195 C   0  0  0  0  0  0  0  0  0  0  0  0
   -3.1078    1.3981   -2.9584 C   0  0  0  0  0  0  0  0  0  0  0  0
   -4.2444    1.0970   -2.2200 C   0  0  0  0  0  0  0  0  0  0  0  0
   -4.1773    0.3428   -1.0433 C   0  0  0  0  0  0  0  0  0  0  0  0
   -2.9324   -0.1147   -0.6086 C   0  0  0  0  0  0  0  0  0  0  0  0
   -5.3818    0.1299   -0.4229 O   0  0  0  0  0  0  0  0  0  0  0  0
   -5.3540   -0.6407    0.7730 C   0  0  0  0  0  0  0  0  0  0  0  0
   -5.4504    1.5612   -2.6719 O   0  0  0  0  0  0  0  0  0  0  0  0
    6.6235    0.1709    1.3541 H   0  0  0  0  0  0  0  0  0  0  0  0
    6.4499   -1.3053    0.3256 H   0  0  0  0  0  0  0  0  0  0  0  0
    7.2563   -1.3880    1.8966 H   0  0  0  0  0  0  0  0  0  0  0  0
    4.8687    0.3740   -0.2421 H   0  0  0  0  0  0  0  0  0  0  0  0
    2.6951    1.1723   -1.0061 H   0  0  0  0  0  0  0  0  0  0  0  0
    0.7665   -0.8593    2.2783 H   0  0  0  0  0  0  0  0  0  0  0  0
    3.8958   -2.0198    3.3913 H   0  0  0  0  0  0  0  0  0  0  0  0
    0.3489    1.6786   -0.4102 H   0  0  0  0  0  0  0  0  0  0  0  0
   -0.4262    0.9006    0.9498 H   0  0  0  0  0  0  0  0  0  0  0  0
   -0.5402   -1.2757   -0.3663 H   0  0  0  0  0  0  0  0  0  0  0  0
    0.2298   -0.4906   -1.7248 H   0  0  0  0  0  0  0  0  0  0  0  0
   -0.9786    1.1779   -3.0981 H   0  0  0  0  0  0  0  0  0  0  0  0
   -3.1895    1.9867   -3.8670 H   0  0  0  0  0  0  0  0  0  0  0  0
   -2.8338   -0.6994    0.3005 H   0  0  0  0  0  0  0  0  0  0  0  0
   -4.9853   -1.6538    0.5814 H   0  0  0  0  0  0  0  0  0  0  0  0
   -4.7630   -0.1432    1.5491 H   0  0  0  0  0  0  0  0  0  0  0  0
   -6.3815   -0.7244    1.1398 H   0  0  0  0  0  0  0  0  0  0  0  0
   -6.1010    1.2410   -2.0173 H   0  0  0  0  0  0  0  0  0  0  0  0
  1  2  1  0
  2  3  1  0
  3  4  2  0
  4  5  1  0
  5  6  2  0
  6  7  1  0
  7  8  2  0
  8  9  1  0
  6 10  1  0
 10 11  1  0
 11 12  1  0
 12 13  2  0
 13 14  1  0
 14 15  2  0
 15 16  1  0
 16 17  2  0
 16 18  1  0
 18 19  1  0
 15 20  1  0
  8  3  1  0
 17 12  1  0
  1 21  1  0
  1 22  1  0
  1 23  1  0
  4 24  1  0
  5 25  1  0
  7 26  1  0
  9 27  1  0
 10 28  1  0
 10 29  1  0
 11 30  1  0
 11 31  1  0
 13 32  1  0
 14 33  1  0
 17 34  1  0
 19 35  1  0
 19 36  1  0
 19 37  1  0
 20 38  1  0
M  END
