
     RDKit          3D

 41 42  0  0  0  0  0  0  0  0999 V2000
    2.7691    3.3856   -3.2016 C   0  0  0  0  0  0  0  0  0  0  0  0
    3.0660    2.0012   -3.3441 O   0  0  0  0  0  0  0  0  0  0  0  0
    2.1066    1.1230   -2.9095 C   0  0  0  0  0  0  0  0  0  0  0  0
    0.8826    1.4573   -2.3338 C   0  0  0  0  0  0  0  0  0  0  0  0
   -0.0026    0.4481   -1.9335 C   0  0  0  0  0  0  0  0  0  0  0  0
    0.3226   -0.9059   -2.1040 C   0  0  0  0  0  0  0  0  0  0  0  0
    1.5536   -1.2394   -2.6790 C   0  0  0  0  0  0  0  0  0  0  0  0
    2.4246   -0.2298   -3.0730 C   0  0  0  0  0  0  0  0  0  0  0  0
    3.6214   -0.5920   -3.6311 O   0  0  0  0  0  0  0  0  0  0  0  0
   -0.6266   -1.9879   -1.6461 C   0  0  0  0  0  0  0  0  0  0  0  0
   -0.2698   -2.5726   -0.2731 C   0  0  0  0  0  0  0  0  0  0  0  0
   -0.5075   -1.6126    0.8698 C   0  0  0  0  0  0  0  0  0  0  0  0
    0.5549   -0.8877    1.4173 C   0  0  0  0  0  0  0  0  0  0  0  0
    0.3347    0.0207    2.4552 C   0  0  0  0  0  0  0  0  0  0  0  0
   -0.9532    0.2184    2.9623 C   0  0  0  0  0  0  0  0  0  0  0  0
   -2.0322   -0.5060    2.4175 C   0  0  0  0  0  0  0  0  0  0  0  0
   -1.8009   -1.4136    1.3757 C   0  0  0  0  0  0  0  0  0  0  0  0
   -3.2664   -0.2516    2.9646 O   0  0  0  0  0  0  0  0  0  0  0  0
   -4.3685   -1.0080    2.4862 C   0  0  0  0  0  0  0  0  0  0  0  0
   -1.2623    1.0920    3.9761 O   0  0  0  0  0  0  0  0  0  0  0  0
   -0.1909    1.7984    4.5839 C   0  0  0  0  0  0  0  0  0  0  0  0
    3.6191    3.9512   -3.5953 H   0  0  0  0  0  0  0  0  0  0  0  0
    2.6485    3.6566   -2.1475 H   0  0  0  0  0  0  0  0  0  0  0  0
    1.8856    3.6623   -3.7863 H   0  0  0  0  0  0  0  0  0  0  0  0
    0.5828    2.4874   -2.1749 H   0  0  0  0  0  0  0  0  0  0  0  0
   -0.9486    0.7277   -1.4725 H   0  0  0  0  0  0  0  0  0  0  0  0
    1.8416   -2.2771   -2.8217 H   0  0  0  0  0  0  0  0  0  0  0  0
    4.0660    0.2537   -3.8352 H   0  0  0  0  0  0  0  0  0  0  0  0
   -0.6116   -2.7946   -2.3906 H   0  0  0  0  0  0  0  0  0  0  0  0
   -1.6547   -1.6037   -1.6478 H   0  0  0  0  0  0  0  0  0  0  0  0
    0.7724   -2.9166   -0.2591 H   0  0  0  0  0  0  0  0  0  0  0  0
   -0.8791   -3.4691   -0.0989 H   0  0  0  0  0  0  0  0  0  0  0  0
    1.5639   -1.0154    1.0291 H   0  0  0  0  0  0  0  0  0  0  0  0
    1.1917    0.5620    2.8408 H   0  0  0  0  0  0  0  0  0  0  0  0
   -2.6155   -1.9788    0.9350 H   0  0  0  0  0  0  0  0  0  0  0  0
   -4.2199   -2.0789    2.6596 H   0  0  0  0  0  0  0  0  0  0  0  0
   -4.5599   -0.8000    1.4284 H   0  0  0  0  0  0  0  0  0  0  0  0
   -5.2548   -0.7008    3.0497 H   0  0  0  0  0  0  0  0  0  0  0  0
    0.2997    2.4644    3.8666 H   0  0  0  0  0  0  0  0  0  0  0  0
    0.5274    1.1112    5.0431 H   0  0  0  0  0  0  0  0  0  0  0  0
   -0.6100    2.4207    5.3806 H   0  0  0  0  0  0  0  0  0  0  0  0
  1  2  1  0
  2  3  1  0
  3  4  2  0
  4  5  1  0
  5  6  2  0
  6  7  1  0
  7  8  2  0
  8  9  1  0
  6 10  1  0
 10 11  1  0
 11 12  1  0
 12 13  2  0
 13 14  1  0
 14 15  2  0
 15 16  1  0
 16 17  2  0
 16 18  1  0
 18 19  1  0
 15 20  1  0
 20 21  1  0
  8  3  1  0
 17 12  1  0
  1 22  1  0
  1 23  1  0
  1 24  1  0
  4 25  1  0
  5 26  1  0
  7 27  1  0
  9 28  1  0
 10 29  1  0
 10 30  1  0
 11 31  1  0
 11 32  1  0
 13 33  1  0
 14 34  1  0
 17 35  1  0
 19 36  1  0
 19 37  1  0
 19 38  1  0
 21 39  1  0
 21 40  1  0
 21 41  1  0
M  END
