
     RDKit          3D

 36 38  0  0  0  0  0  0  0  0999 V2000
   -6.3190    1.1240   -0.5504 C   0  0  0  0  0  0  0  0  0  0  0  0
   -5.6169    0.1712    0.2396 O   0  0  0  0  0  0  0  0  0  0  0  0
   -4.2721    0.0502    0.0006 C   0  0  0  0  0  0  0  0  0  0  0  0
   -3.5312    0.7747   -0.9314 C   0  0  0  0  0  0  0  0  0  0  0  0
   -2.1558    0.5441   -1.0664 C   0  0  0  0  0  0  0  0  0  0  0  0
   -1.5058   -0.4152   -0.2760 C   0  0  0  0  0  0  0  0  0  0  0  0
   -2.2500   -1.1376    0.6627 C   0  0  0  0  0  0  0  0  0  0  0  0
   -3.6141   -0.9002    0.7889 C   0  0  0  0  0  0  0  0  0  0  0  0
   -4.3119   -1.6261    1.7169 O   0  0  0  0  0  0  0  0  0  0  0  0
   -0.0208   -0.6438   -0.4122 C   0  0  0  0  0  0  0  0  0  0  0  0
    0.7765    0.2402    0.5505 C   0  0  0  0  0  0  0  0  0  0  0  0
    2.2631    0.0163    0.4092 C   0  0  0  0  0  0  0  0  0  0  0  0
    2.9050   -0.9870    1.1704 C   0  0  0  0  0  0  0  0  0  0  0  0
    4.2774   -1.2218    1.0391 C   0  0  0  0  0  0  0  0  0  0  0  0
    4.9772   -0.4459    0.1416 C   0  0  0  0  0  0  0  0  0  0  0  0
    4.3610    0.5285   -0.6068 C   0  0  0  0  0  0  0  0  0  0  0  0
    3.0099    0.7833   -0.4993 C   0  0  0  0  0  0  0  0  0  0  0  0
    5.2275    1.1754   -1.4317 O   0  0  0  0  0  0  0  0  0  0  0  0
    6.4608    0.4979   -1.1127 C   0  0  0  0  0  0  0  0  0  0  0  0
    6.3093   -0.5347   -0.1169 O   0  0  0  0  0  0  0  0  0  0  0  0
   -6.2729    0.8661   -1.6136 H   0  0  0  0  0  0  0  0  0  0  0  0
   -7.3701    1.0990   -0.2472 H   0  0  0  0  0  0  0  0  0  0  0  0
   -5.9448    2.1374   -0.3712 H   0  0  0  0  0  0  0  0  0  0  0  0
   -3.9861    1.5257   -1.5682 H   0  0  0  0  0  0  0  0  0  0  0  0
   -1.5924    1.1213   -1.7971 H   0  0  0  0  0  0  0  0  0  0  0  0
   -1.7781   -1.8834    1.2965 H   0  0  0  0  0  0  0  0  0  0  0  0
   -5.2328   -1.3094    1.6391 H   0  0  0  0  0  0  0  0  0  0  0  0
    0.2003   -1.7043   -0.2329 H   0  0  0  0  0  0  0  0  0  0  0  0
    0.2830   -0.4522   -1.4498 H   0  0  0  0  0  0  0  0  0  0  0  0
    0.4780    0.0454    1.5890 H   0  0  0  0  0  0  0  0  0  0  0  0
    0.5509    1.3003    0.3741 H   0  0  0  0  0  0  0  0  0  0  0  0
    2.3305   -1.5900    1.8714 H   0  0  0  0  0  0  0  0  0  0  0  0
    4.7750   -1.9884    1.6219 H   0  0  0  0  0  0  0  0  0  0  0  0
    2.5490    1.5565   -1.1044 H   0  0  0  0  0  0  0  0  0  0  0  0
    6.8589    0.0458   -2.0284 H   0  0  0  0  0  0  0  0  0  0  0  0
    7.1814    1.2371   -0.7442 H   0  0  0  0  0  0  0  0  0  0  0  0
  1  2  1  0
  2  3  1  0
  3  4  2  0
  4  5  1  0
  5  6  2  0
  6  7  1  0
  7  8  2  0
  8  9  1  0
  6 10  1  0
 10 11  1  0
 11 12  1  0
 12 13  2  0
 13 14  1  0
 14 15  2  0
 15 16  1  0
 16 17  2  0
 16 18  1  0
 18 19  1  0
 19 20  1  0
  8  3  1  0
 17 12  1  0
 20 15  1  0
  1 21  1  0
  1 22  1  0
  1 23  1  0
  4 24  1  0
  5 25  1  0
  7 26  1  0
  9 27  1  0
 10 28  1  0
 10 29  1  0
 11 30  1  0
 11 31  1  0
 13 32  1  0
 14 33  1  0
 17 34  1  0
 19 35  1  0
 19 36  1  0
M  END
