
     RDKit          3D

 36 37  0  0  0  0  0  0  0  0999 V2000
    6.5800    0.3694    0.2952 C   0  0  0  0  0  0  0  0  0  0  0  0
    5.1871   -0.2345    0.2953 C   0  0  0  0  0  0  0  0  0  0  0  0
    4.2826    0.7486   -0.2074 O   0  0  0  0  0  0  0  0  0  0  0  0
    2.9625    0.3874   -0.2899 C   0  0  0  0  0  0  0  0  0  0  0  0
    2.4184   -0.8420    0.0769 C   0  0  0  0  0  0  0  0  0  0  0  0
    1.0429   -1.0699   -0.0631 C   0  0  0  0  0  0  0  0  0  0  0  0
    0.1968   -0.0752   -0.5749 C   0  0  0  0  0  0  0  0  0  0  0  0
    0.7441    1.1602   -0.9373 C   0  0  0  0  0  0  0  0  0  0  0  0
    2.1100    1.3759   -0.7936 C   0  0  0  0  0  0  0  0  0  0  0  0
    2.6127    2.5960   -1.1592 O   0  0  0  0  0  0  0  0  0  0  0  0
   -1.2863   -0.3204   -0.7040 C   0  0  0  0  0  0  0  0  0  0  0  0
   -2.0426    0.1184    0.5529 C   0  0  0  0  0  0  0  0  0  0  0  0
   -3.5247   -0.1339    0.4260 C   0  0  0  0  0  0  0  0  0  0  0  0
   -4.3634    0.8355   -0.1401 C   0  0  0  0  0  0  0  0  0  0  0  0
   -5.7314    0.5944   -0.2755 C   0  0  0  0  0  0  0  0  0  0  0  0
   -6.2722   -0.6177    0.1493 C   0  0  0  0  0  0  0  0  0  0  0  0
   -5.4456   -1.5905    0.7087 C   0  0  0  0  0  0  0  0  0  0  0  0
   -4.0773   -1.3515    0.8449 C   0  0  0  0  0  0  0  0  0  0  0  0
    7.3153   -0.3463    0.6735 H   0  0  0  0  0  0  0  0  0  0  0  0
    6.6098    1.2697    0.9179 H   0  0  0  0  0  0  0  0  0  0  0  0
    6.8689    0.6721   -0.7167 H   0  0  0  0  0  0  0  0  0  0  0  0
    4.9170   -0.5107    1.3210 H   0  0  0  0  0  0  0  0  0  0  0  0
    5.1817   -1.1214   -0.3488 H   0  0  0  0  0  0  0  0  0  0  0  0
    3.0290   -1.6448    0.4753 H   0  0  0  0  0  0  0  0  0  0  0  0
    0.6344   -2.0348    0.2312 H   0  0  0  0  0  0  0  0  0  0  0  0
    0.1171    1.9557   -1.3304 H   0  0  0  0  0  0  0  0  0  0  0  0
    3.5713    2.5330   -0.9818 H   0  0  0  0  0  0  0  0  0  0  0  0
   -1.4626   -1.3853   -0.9054 H   0  0  0  0  0  0  0  0  0  0  0  0
   -1.6656    0.2117   -1.5864 H   0  0  0  0  0  0  0  0  0  0  0  0
   -1.8721    1.1847    0.7519 H   0  0  0  0  0  0  0  0  0  0  0  0
   -1.6582   -0.4097    1.4356 H   0  0  0  0  0  0  0  0  0  0  0  0
   -3.9551    1.7851   -0.4789 H   0  0  0  0  0  0  0  0  0  0  0  0
   -6.3751    1.3527   -0.7134 H   0  0  0  0  0  0  0  0  0  0  0  0
   -7.3375   -0.8045    0.0436 H   0  0  0  0  0  0  0  0  0  0  0  0
   -5.8669   -2.5364    1.0386 H   0  0  0  0  0  0  0  0  0  0  0  0
   -3.4446   -2.1211    1.2807 H   0  0  0  0  0  0  0  0  0  0  0  0
  1  2  1  0
  2  3  1  0
  3  4  1  0
  4  5  2  0
  5  6  1  0
  6  7  2  0
  7  8  1  0
  8  9  2  0
  9 10  1  0
  7 11  1  0
 11 12  1  0
 12 13  1  0
 13 14  2  0
 14 15  1  0
 15 16  2  0
 16 17  1  0
 17 18  2  0
  9  4  1  0
 18 13  1  0
  1 19  1  0
  1 20  1  0
  1 21  1  0
  2 22  1  0
  2 23  1  0
  5 24  1  0
  6 25  1  0
  8 26  1  0
 10 27  1  0
 11 28  1  0
 11 29  1  0
 12 30  1  0
 12 31  1  0
 14 32  1  0
 15 33  1  0
 16 34  1  0
 17 35  1  0
 18 36  1  0
M  END
