
     RDKit          3D

116122  0  0  0  0  0  0  0  0999 V2000
   -2.0979   -2.3616   -5.3257 O   0  0  0  0  0  0  0  0  0  0  0  0
   -1.5479   -1.1809   -4.7409 C   0  0  0  0  0  0  0  0  0  0  0  0
   -1.4321   -1.3170   -3.2174 C   0  0  0  0  0  0  0  0  0  0  0  0
   -0.8082   -0.1309   -2.7296 O   0  0  0  0  0  0  0  0  0  0  0  0
   -0.7767   -0.0339   -1.3035 C   0  0  0  0  0  0  0  0  0  0  0  0
   -0.1152    1.1696   -0.9277 O   0  0  0  0  0  0  0  0  0  0  0  0
    1.2861    1.0794   -0.7144 C   0  0  0  0  0  0  0  0  0  0  0  0
    1.5584    0.6385    0.7357 C   0  0  0  0  0  0  0  0  0  0  0  0
    3.0429    0.6804    1.1180 C   0  0  0  0  0  0  0  0  0  0  0  0
    3.9621    0.1122    0.0055 C   0  0  0  0  0  0  0  0  0  0  0  0
    3.5466    0.6448   -1.4095 C   0  0  0  0  0  0  0  0  0  0  0  0
    2.0872    0.1966   -1.6808 C   0  0  0  0  0  0  0  0  0  0  0  0
    3.3728    2.1838   -1.4815 C   0  0  0  0  0  0  0  0  0  0  0  0
    1.9536    2.4182   -0.9967 C   0  0  0  0  0  0  0  0  0  0  0  0
    1.3731    3.6252   -0.9521 C   0  0  0  0  0  0  0  0  0  0  0  0
    4.4592    0.0880   -2.5105 C   0  0  0  0  0  0  0  0  0  0  0  0
    5.9447    0.2239   -2.2075 C   0  0  0  0  0  0  0  0  0  0  0  0
    6.3076   -0.4439   -0.8636 C   0  0  0  0  0  0  0  0  0  0  0  0
    5.5118    0.1849    0.3411 C   0  0  0  0  0  0  0  0  0  0  0  0
    5.9740    1.6345    0.6243 C   0  0  0  0  0  0  0  0  0  0  0  0
    5.7904   -0.6557    1.6381 C   0  0  0  0  0  0  0  0  0  0  0  0
    7.0309   -1.5459    1.5747 C   0  0  0  0  0  0  0  0  0  0  0  0
    8.1916   -0.8731    0.8498 C   0  0  0  0  0  0  0  0  0  0  0  0
    7.8583   -0.6130   -0.6465 C   0  0  0  0  0  0  0  0  0  0  0  0
    8.3391   -1.8558   -1.4413 C   0  0  0  0  0  0  0  0  0  0  0  0
    8.6426    0.6219   -1.1112 C   0  0  0  0  0  0  0  0  0  0  0  0
    8.7545    1.6771   -0.5109 O   0  0  0  0  0  0  0  0  0  0  0  0
    9.1807    0.5174   -2.3440 O   0  0  0  0  0  0  0  0  0  0  0  0
   -2.2172   -0.0471   -0.7332 C   0  0  0  0  0  0  0  0  0  0  0  0
   -2.7763   -1.4411   -1.0742 C   0  0  0  0  0  0  0  0  0  0  0  0
   -2.8194   -1.6150   -2.5991 C   0  0  0  0  0  0  0  0  0  0  0  0
   -3.1982   -2.9787   -2.8924 O   0  0  0  0  0  0  0  0  0  0  0  0
   -4.0865   -1.6690   -0.5382 O   0  0  0  0  0  0  0  0  0  0  0  0
   -4.0769   -2.3561    0.7099 C   0  0  0  0  0  0  0  0  0  0  0  0
   -3.7805   -1.4569    1.7800 O   0  0  0  0  0  0  0  0  0  0  0  0
   -3.7581   -2.1095    3.0574 C   0  0  0  0  0  0  0  0  0  0  0  0
   -3.4432   -1.0566    4.1327 C   0  0  0  0  0  0  0  0  0  0  0  0
   -3.2893   -1.5900    5.4416 O   0  0  0  0  0  0  0  0  0  0  0  0
   -5.0960   -2.8073    3.3689 C   0  0  0  0  0  0  0  0  0  0  0  0
   -5.5040   -3.7262    2.2205 C   0  0  0  0  0  0  0  0  0  0  0  0
   -5.4728   -2.9790    0.8907 C   0  0  0  0  0  0  0  0  0  0  0  0
   -5.7694   -3.9155   -0.1576 O   0  0  0  0  0  0  0  0  0  0  0  0
   -6.8220   -4.2357    2.4830 O   0  0  0  0  0  0  0  0  0  0  0  0
   -4.9774   -3.5831    4.5700 O   0  0  0  0  0  0  0  0  0  0  0  0
   -2.9806    0.9879   -1.3867 O   0  0  0  0  0  0  0  0  0  0  0  0
   -3.7651    1.7869   -0.5033 C   0  0  0  0  0  0  0  0  0  0  0  0
   -4.9223    1.0397   -0.1271 O   0  0  0  0  0  0  0  0  0  0  0  0
   -5.9097    1.7567    0.6156 C   0  0  0  0  0  0  0  0  0  0  0  0
   -5.4218    2.0775    2.0362 C   0  0  0  0  0  0  0  0  0  0  0  0
   -6.3922    2.8335    2.7579 O   0  0  0  0  0  0  0  0  0  0  0  0
   -6.4034    2.9665   -0.1909 C   0  0  0  0  0  0  0  0  0  0  0  0
   -5.2263    3.8746   -0.5343 C   0  0  0  0  0  0  0  0  0  0  0  0
   -4.1274    3.0904   -1.2525 C   0  0  0  0  0  0  0  0  0  0  0  0
   -2.9846    3.9586   -1.3726 O   0  0  0  0  0  0  0  0  0  0  0  0
   -5.6528    4.9639   -1.3674 O   0  0  0  0  0  0  0  0  0  0  0  0
   -7.4230    3.7327    0.4656 O   0  0  0  0  0  0  0  0  0  0  0  0
   -2.0191   -2.2445   -6.2900 H   0  0  0  0  0  0  0  0  0  0  0  0
   -2.1882   -0.3284   -5.0022 H   0  0  0  0  0  0  0  0  0  0  0  0
   -0.5605   -0.9903   -5.1823 H   0  0  0  0  0  0  0  0  0  0  0  0
   -0.7661   -2.1680   -3.0118 H   0  0  0  0  0  0  0  0  0  0  0  0
   -0.2336   -0.8945   -0.8970 H   0  0  0  0  0  0  0  0  0  0  0  0
    0.9855    1.2552    1.4387 H   0  0  0  0  0  0  0  0  0  0  0  0
    1.1851   -0.3853    0.8811 H   0  0  0  0  0  0  0  0  0  0  0  0
    3.1817    0.1296    2.0560 H   0  0  0  0  0  0  0  0  0  0  0  0
    3.2972    1.7201    1.3379 H   0  0  0  0  0  0  0  0  0  0  0  0
    3.7393   -0.9674   -0.0236 H   0  0  0  0  0  0  0  0  0  0  0  0
    1.7935    0.3853   -2.7255 H   0  0  0  0  0  0  0  0  0  0  0  0
    1.9417   -0.8779   -1.4945 H   0  0  0  0  0  0  0  0  0  0  0  0
    3.4632    2.5385   -2.5153 H   0  0  0  0  0  0  0  0  0  0  0  0
    4.0874    2.7290   -0.8681 H   0  0  0  0  0  0  0  0  0  0  0  0
    1.9141    4.5270   -1.2236 H   0  0  0  0  0  0  0  0  0  0  0  0
    0.3316    3.7328   -0.6564 H   0  0  0  0  0  0  0  0  0  0  0  0
    4.2402    0.5720   -3.4723 H   0  0  0  0  0  0  0  0  0  0  0  0
    4.2346   -0.9805   -2.6615 H   0  0  0  0  0  0  0  0  0  0  0  0
    6.2243    1.2824   -2.2243 H   0  0  0  0  0  0  0  0  0  0  0  0
    6.4961   -0.2534   -3.0258 H   0  0  0  0  0  0  0  0  0  0  0  0
    5.9117   -1.4707   -0.9477 H   0  0  0  0  0  0  0  0  0  0  0  0
    6.9271    1.6549    1.1533 H   0  0  0  0  0  0  0  0  0  0  0  0
    5.2873    2.1713    1.2797 H   0  0  0  0  0  0  0  0  0  0  0  0
    6.1005    2.2266   -0.2810 H   0  0  0  0  0  0  0  0  0  0  0  0
    4.9405   -1.3018    1.8833 H   0  0  0  0  0  0  0  0  0  0  0  0
    5.9005    0.0206    2.4919 H   0  0  0  0  0  0  0  0  0  0  0  0
    7.3323   -1.8234    2.5893 H   0  0  0  0  0  0  0  0  0  0  0  0
    6.7798   -2.4847    1.0747 H   0  0  0  0  0  0  0  0  0  0  0  0
    9.0874   -1.5030    0.9415 H   0  0  0  0  0  0  0  0  0  0  0  0
    8.4428    0.0536    1.3804 H   0  0  0  0  0  0  0  0  0  0  0  0
    8.0980   -1.7774   -2.5091 H   0  0  0  0  0  0  0  0  0  0  0  0
    7.8726   -2.7750   -1.0669 H   0  0  0  0  0  0  0  0  0  0  0  0
    9.4285   -1.9821   -1.3666 H   0  0  0  0  0  0  0  0  0  0  0  0
    9.5481    1.4122   -2.4955 H   0  0  0  0  0  0  0  0  0  0  0  0
   -2.1843    0.1208    0.3513 H   0  0  0  0  0  0  0  0  0  0  0  0
   -2.0962   -2.2069   -0.6721 H   0  0  0  0  0  0  0  0  0  0  0  0
   -3.5941   -0.9658   -3.0232 H   0  0  0  0  0  0  0  0  0  0  0  0
   -3.1010   -3.0709   -3.8668 H   0  0  0  0  0  0  0  0  0  0  0  0
   -3.3319   -3.1647    0.6767 H   0  0  0  0  0  0  0  0  0  0  0  0
   -2.9492   -2.8549    3.0662 H   0  0  0  0  0  0  0  0  0  0  0  0
   -2.5237   -0.5167    3.8676 H   0  0  0  0  0  0  0  0  0  0  0  0
   -4.2422   -0.3063    4.1671 H   0  0  0  0  0  0  0  0  0  0  0  0
   -3.5386   -2.5420    5.4272 H   0  0  0  0  0  0  0  0  0  0  0  0
   -5.8847   -2.0639    3.5391 H   0  0  0  0  0  0  0  0  0  0  0  0
   -4.8485   -4.6077    2.1846 H   0  0  0  0  0  0  0  0  0  0  0  0
   -6.2578   -2.2110    0.8650 H   0  0  0  0  0  0  0  0  0  0  0  0
   -5.5922   -3.4309   -0.9967 H   0  0  0  0  0  0  0  0  0  0  0  0
   -7.1139   -4.6312    1.6372 H   0  0  0  0  0  0  0  0  0  0  0  0
   -5.8269   -4.0830    4.6261 H   0  0  0  0  0  0  0  0  0  0  0  0
   -3.1657    2.0354    0.3782 H   0  0  0  0  0  0  0  0  0  0  0  0
   -6.7701    1.0853    0.7335 H   0  0  0  0  0  0  0  0  0  0  0  0
   -4.4867    2.6448    2.0314 H   0  0  0  0  0  0  0  0  0  0  0  0
   -5.2217    1.1425    2.5727 H   0  0  0  0  0  0  0  0  0  0  0  0
   -6.0912    2.8567    3.6882 H   0  0  0  0  0  0  0  0  0  0  0  0
   -6.8499    2.6165   -1.1301 H   0  0  0  0  0  0  0  0  0  0  0  0
   -4.8313    4.3527    0.3693 H   0  0  0  0  0  0  0  0  0  0  0  0
   -4.4415    2.8563   -2.2784 H   0  0  0  0  0  0  0  0  0  0  0  0
   -3.3183    4.7609   -1.8153 H   0  0  0  0  0  0  0  0  0  0  0  0
   -6.6061    5.0980   -1.1728 H   0  0  0  0  0  0  0  0  0  0  0  0
   -7.2318    3.6962    1.4287 H   0  0  0  0  0  0  0  0  0  0  0  0
  1  2  1  0
  2  3  1  0
  3  4  1  0
  4  5  1  0
  5  6  1  0
  6  7  1  0
  7  8  1  0
  8  9  1  0
  9 10  1  0
 10 11  1  0
 11 12  1  0
 11 13  1  0
 13 14  1  0
 14 15  2  0
 11 16  1  0
 16 17  1  0
 17 18  1  0
 18 19  1  0
 19 20  1  0
 19 21  1  0
 21 22  1  0
 22 23  1  0
 23 24  1  0
 24 25  1  0
 24 26  1  0
 26 27  2  0
 26 28  1  0
  5 29  1  0
 29 30  1  0
 30 31  1  0
 31 32  1  0
 30 33  1  0
 33 34  1  0
 34 35  1  0
 35 36  1  0
 36 37  1  0
 37 38  1  0
 36 39  1  0
 39 40  1  0
 40 41  1  0
 41 42  1  0
 40 43  1  0
 39 44  1  0
 29 45  1  0
 45 46  1  0
 46 47  1  0
 47 48  1  0
 48 49  1  0
 49 50  1  0
 48 51  1  0
 51 52  1  0
 52 53  1  0
 53 54  1  0
 52 55  1  0
 51 56  1  0
 31  3  1  0
 41 34  1  0
 53 46  1  0
 12  7  1  0
 24 18  1  0
 14  7  1  0
 19 10  1  0
  1 57  1  0
  2 58  1  0
  2 59  1  0
  3 60  1  0
  5 61  1  0
  8 62  1  0
  8 63  1  0
  9 64  1  0
  9 65  1  0
 10 66  1  0
 12 67  1  0
 12 68  1  0
 13 69  1  0
 13 70  1  0
 15 71  1  0
 15 72  1  0
 16 73  1  0
 16 74  1  0
 17 75  1  0
 17 76  1  0
 18 77  1  0
 20 78  1  0
 20 79  1  0
 20 80  1  0
 21 81  1  0
 21 82  1  0
 22 83  1  0
 22 84  1  0
 23 85  1  0
 23 86  1  0
 25 87  1  0
 25 88  1  0
 25 89  1  0
 28 90  1  0
 29 91  1  0
 30 92  1  0
 31 93  1  0
 32 94  1  0
 34 95  1  0
 36 96  1  0
 37 97  1  0
 37 98  1  0
 38 99  1  0
 39100  1  0
 40101  1  0
 41102  1  0
 42103  1  0
 43104  1  0
 44105  1  0
 46106  1  0
 48107  1  0
 49108  1  0
 49109  1  0
 50110  1  0
 51111  1  0
 52112  1  0
 53113  1  0
 54114  1  0
 55115  1  0
 56116  1  0
M  END
