
     RDKit          3D

 45 46  0  0  0  0  0  0  0  0999 V2000
    8.2920    0.0120    0.7963 C   0  0  0  0  0  0  0  0  0  0  0  0
    7.1885   -0.2671   -0.2116 C   0  0  0  0  0  0  0  0  0  0  0  0
    5.8115    0.0755    0.3564 C   0  0  0  0  0  0  0  0  0  0  0  0
    4.7061   -0.2063   -0.6590 C   0  0  0  0  0  0  0  0  0  0  0  0
    3.3264    0.1332   -0.1001 C   0  0  0  0  0  0  0  0  0  0  0  0
    2.3623   -0.1608   -1.1124 O   0  0  0  0  0  0  0  0  0  0  0  0
    1.0490    0.0832   -0.8033 C   0  0  0  0  0  0  0  0  0  0  0  0
    0.5635    0.5817    0.4040 C   0  0  0  0  0  0  0  0  0  0  0  0
   -0.8125    0.7804    0.5780 C   0  0  0  0  0  0  0  0  0  0  0  0
   -1.7182    0.4881   -0.4524 C   0  0  0  0  0  0  0  0  0  0  0  0
   -1.2293   -0.0175   -1.6617 C   0  0  0  0  0  0  0  0  0  0  0  0
    0.1378   -0.2115   -1.8234 C   0  0  0  0  0  0  0  0  0  0  0  0
    0.5824   -0.7065   -3.0202 O   0  0  0  0  0  0  0  0  0  0  0  0
   -3.2004    0.6853   -0.2509 C   0  0  0  0  0  0  0  0  0  0  0  0
   -3.8719   -0.5844    0.2793 C   0  0  0  0  0  0  0  0  0  0  0  0
   -5.3528   -0.3842    0.4874 C   0  0  0  0  0  0  0  0  0  0  0  0
   -6.2544   -0.6186   -0.5593 C   0  0  0  0  0  0  0  0  0  0  0  0
   -7.6224   -0.4147   -0.3727 C   0  0  0  0  0  0  0  0  0  0  0  0
   -8.1006    0.0288    0.8589 C   0  0  0  0  0  0  0  0  0  0  0  0
   -7.2116    0.2701    1.9046 C   0  0  0  0  0  0  0  0  0  0  0  0
   -5.8431    0.0668    1.7201 C   0  0  0  0  0  0  0  0  0  0  0  0
    9.2678   -0.2400    0.3694 H   0  0  0  0  0  0  0  0  0  0  0  0
    8.1541   -0.5839    1.7041 H   0  0  0  0  0  0  0  0  0  0  0  0
    8.3075    1.0697    1.0782 H   0  0  0  0  0  0  0  0  0  0  0  0
    7.2211   -1.3252   -0.4966 H   0  0  0  0  0  0  0  0  0  0  0  0
    7.3736    0.3193   -1.1191 H   0  0  0  0  0  0  0  0  0  0  0  0
    5.7855    1.1337    0.6437 H   0  0  0  0  0  0  0  0  0  0  0  0
    5.6330   -0.5106    1.2661 H   0  0  0  0  0  0  0  0  0  0  0  0
    4.7260   -1.2615   -0.9592 H   0  0  0  0  0  0  0  0  0  0  0  0
    4.8773    0.3701   -1.5768 H   0  0  0  0  0  0  0  0  0  0  0  0
    3.2890    1.1986    0.1571 H   0  0  0  0  0  0  0  0  0  0  0  0
    3.1336   -0.4764    0.7909 H   0  0  0  0  0  0  0  0  0  0  0  0
    1.2212    0.8258    1.2310 H   0  0  0  0  0  0  0  0  0  0  0  0
   -1.1746    1.1675    1.5286 H   0  0  0  0  0  0  0  0  0  0  0  0
   -1.9028   -0.2617   -2.4786 H   0  0  0  0  0  0  0  0  0  0  0  0
    1.5527   -0.7614   -2.9213 H   0  0  0  0  0  0  0  0  0  0  0  0
   -3.3652    1.5231    0.4394 H   0  0  0  0  0  0  0  0  0  0  0  0
   -3.6568    0.9937   -1.2008 H   0  0  0  0  0  0  0  0  0  0  0  0
   -3.7131   -1.4215   -0.4133 H   0  0  0  0  0  0  0  0  0  0  0  0
   -3.4105   -0.8955    1.2259 H   0  0  0  0  0  0  0  0  0  0  0  0
   -5.8955   -0.9622   -1.5270 H   0  0  0  0  0  0  0  0  0  0  0  0
   -8.3150   -0.6013   -1.1892 H   0  0  0  0  0  0  0  0  0  0  0  0
   -9.1660    0.1872    1.0033 H   0  0  0  0  0  0  0  0  0  0  0  0
   -7.5841    0.6174    2.8646 H   0  0  0  0  0  0  0  0  0  0  0  0
   -5.1613    0.2619    2.5447 H   0  0  0  0  0  0  0  0  0  0  0  0
  1  2  1  0
  2  3  1  0
  3  4  1  0
  4  5  1  0
  5  6  1  0
  6  7  1  0
  7  8  2  0
  8  9  1  0
  9 10  2  0
 10 11  1  0
 11 12  2  0
 12 13  1  0
 10 14  1  0
 14 15  1  0
 15 16  1  0
 16 17  2  0
 17 18  1  0
 18 19  2  0
 19 20  1  0
 20 21  2  0
 12  7  1  0
 21 16  1  0
  1 22  1  0
  1 23  1  0
  1 24  1  0
  2 25  1  0
  2 26  1  0
  3 27  1  0
  3 28  1  0
  4 29  1  0
  4 30  1  0
  5 31  1  0
  5 32  1  0
  8 33  1  0
  9 34  1  0
 11 35  1  0
 13 36  1  0
 14 37  1  0
 14 38  1  0
 15 39  1  0
 15 40  1  0
 17 41  1  0
 18 42  1  0
 19 43  1  0
 20 44  1  0
 21 45  1  0
M  END
