
     RDKit          3D

 33 34  0  0  0  0  0  0  0  0999 V2000
    2.3711    1.7167   -1.5208 C   0  0  0  0  0  0  0  0  0  0  0  0
    2.8905    0.3935   -1.4424 O   0  0  0  0  0  0  0  0  0  0  0  0
    2.2780   -0.4470   -0.5479 C   0  0  0  0  0  0  0  0  0  0  0  0
    1.2894   -0.0923    0.3703 C   0  0  0  0  0  0  0  0  0  0  0  0
    0.7278   -1.0592    1.2244 C   0  0  0  0  0  0  0  0  0  0  0  0
   -0.3710   -0.6758    2.1901 C   0  0  0  0  0  0  0  0  0  0  0  0
   -1.7805   -0.8352    1.6044 C   0  0  0  0  0  0  0  0  0  0  0  0
   -2.1235    0.2047    0.5629 C   0  0  0  0  0  0  0  0  0  0  0  0
   -2.4980    1.4996    0.9470 C   0  0  0  0  0  0  0  0  0  0  0  0
   -2.7908    2.4662   -0.0164 C   0  0  0  0  0  0  0  0  0  0  0  0
   -2.7098    2.1492   -1.3711 C   0  0  0  0  0  0  0  0  0  0  0  0
   -2.3365    0.8654   -1.7638 C   0  0  0  0  0  0  0  0  0  0  0  0
   -2.0452   -0.1029   -0.8021 C   0  0  0  0  0  0  0  0  0  0  0  0
    1.1741   -2.3870    1.1507 C   0  0  0  0  0  0  0  0  0  0  0  0
    2.1717   -2.7450    0.2455 C   0  0  0  0  0  0  0  0  0  0  0  0
    2.7114   -1.7762   -0.5900 C   0  0  0  0  0  0  0  0  0  0  0  0
    3.6853   -2.1544   -1.4747 O   0  0  0  0  0  0  0  0  0  0  0  0
    1.3098    1.7118   -1.7912 H   0  0  0  0  0  0  0  0  0  0  0  0
    2.5406    2.2610   -0.5860 H   0  0  0  0  0  0  0  0  0  0  0  0
    2.9137    2.2409   -2.3134 H   0  0  0  0  0  0  0  0  0  0  0  0
    0.9231    0.9276    0.4364 H   0  0  0  0  0  0  0  0  0  0  0  0
   -0.2074    0.3503    2.5435 H   0  0  0  0  0  0  0  0  0  0  0  0
   -0.2852   -1.3112    3.0813 H   0  0  0  0  0  0  0  0  0  0  0  0
   -1.9112   -1.8408    1.1845 H   0  0  0  0  0  0  0  0  0  0  0  0
   -2.5140   -0.7554    2.4174 H   0  0  0  0  0  0  0  0  0  0  0  0
   -2.5647    1.7625    2.0002 H   0  0  0  0  0  0  0  0  0  0  0  0
   -3.0842    3.4667    0.2903 H   0  0  0  0  0  0  0  0  0  0  0  0
   -2.9397    2.9015   -2.1208 H   0  0  0  0  0  0  0  0  0  0  0  0
   -2.2709    0.6161   -2.8197 H   0  0  0  0  0  0  0  0  0  0  0  0
   -1.7444   -1.0979   -1.1243 H   0  0  0  0  0  0  0  0  0  0  0  0
    0.7479   -3.1496    1.7983 H   0  0  0  0  0  0  0  0  0  0  0  0
    2.5236   -3.7704    0.1878 H   0  0  0  0  0  0  0  0  0  0  0  0
    3.9191   -1.3336   -1.9503 H   0  0  0  0  0  0  0  0  0  0  0  0
  1  2  1  0
  2  3  1  0
  3  4  2  0
  4  5  1  0
  5  6  1  0
  6  7  1  0
  7  8  1  0
  8  9  2  0
  9 10  1  0
 10 11  2  0
 11 12  1  0
 12 13  2  0
  5 14  2  0
 14 15  1  0
 15 16  2  0
 16 17  1  0
 16  3  1  0
 13  8  1  0
  1 18  1  0
  1 19  1  0
  1 20  1  0
  4 21  1  0
  6 22  1  0
  6 23  1  0
  7 24  1  0
  7 25  1  0
  9 26  1  0
 10 27  1  0
 11 28  1  0
 12 29  1  0
 13 30  1  0
 14 31  1  0
 15 32  1  0
 17 33  1  0
M  END
