
     RDKit          3D

 34 35  0  0  0  0  0  0  0  0999 V2000
    3.8492   -2.3424   -0.9585 C   0  0  0  0  0  0  0  0  0  0  0  0
    3.7658   -0.9254   -1.0324 O   0  0  0  0  0  0  0  0  0  0  0  0
    2.7095   -0.3337   -0.3799 C   0  0  0  0  0  0  0  0  0  0  0  0
    1.8497   -0.9840    0.5081 C   0  0  0  0  0  0  0  0  0  0  0  0
    0.8039   -0.2829    1.1155 C   0  0  0  0  0  0  0  0  0  0  0  0
    0.5968    1.0724    0.8368 C   0  0  0  0  0  0  0  0  0  0  0  0
    1.4637    1.7219   -0.0526 C   0  0  0  0  0  0  0  0  0  0  0  0
    2.5433    1.0434   -0.6290 C   0  0  0  0  0  0  0  0  0  0  0  0
    3.3236    1.6913   -1.6098 N   0  0  0  0  0  0  0  0  0  0  0  0
   -0.5682    1.8136    1.4493 C   0  0  0  0  0  0  0  0  0  0  0  0
   -1.7874    1.9108    0.5232 C   0  0  0  0  0  0  0  0  0  0  0  0
   -2.5195    0.6006    0.3509 C   0  0  0  0  0  0  0  0  0  0  0  0
   -3.4387    0.1669    1.3159 C   0  0  0  0  0  0  0  0  0  0  0  0
   -4.1014   -1.0522    1.1638 C   0  0  0  0  0  0  0  0  0  0  0  0
   -3.8493   -1.8498    0.0491 C   0  0  0  0  0  0  0  0  0  0  0  0
   -2.9339   -1.4299   -0.9140 C   0  0  0  0  0  0  0  0  0  0  0  0
   -2.2715   -0.2108   -0.7644 C   0  0  0  0  0  0  0  0  0  0  0  0
    4.0823   -2.6686    0.0603 H   0  0  0  0  0  0  0  0  0  0  0  0
    4.6720   -2.6625   -1.6052 H   0  0  0  0  0  0  0  0  0  0  0  0
    2.9332   -2.8163   -1.3271 H   0  0  0  0  0  0  0  0  0  0  0  0
    1.9596   -2.0360    0.7463 H   0  0  0  0  0  0  0  0  0  0  0  0
    0.1326   -0.8114    1.7899 H   0  0  0  0  0  0  0  0  0  0  0  0
    1.2924    2.7649   -0.3066 H   0  0  0  0  0  0  0  0  0  0  0  0
    3.4772    2.6746   -1.4192 H   0  0  0  0  0  0  0  0  0  0  0  0
    4.1873    1.1740   -1.7688 H   0  0  0  0  0  0  0  0  0  0  0  0
   -0.2324    2.8282    1.7005 H   0  0  0  0  0  0  0  0  0  0  0  0
   -0.8426    1.3486    2.4050 H   0  0  0  0  0  0  0  0  0  0  0  0
   -2.4917    2.6424    0.9404 H   0  0  0  0  0  0  0  0  0  0  0  0
   -1.4985    2.3065   -0.4590 H   0  0  0  0  0  0  0  0  0  0  0  0
   -3.6446    0.7774    2.1919 H   0  0  0  0  0  0  0  0  0  0  0  0
   -4.8148   -1.3795    1.9154 H   0  0  0  0  0  0  0  0  0  0  0  0
   -4.3652   -2.7988   -0.0690 H   0  0  0  0  0  0  0  0  0  0  0  0
   -2.7322   -2.0520   -1.7819 H   0  0  0  0  0  0  0  0  0  0  0  0
   -1.5504    0.0988   -1.5187 H   0  0  0  0  0  0  0  0  0  0  0  0
  1  2  1  0
  2  3  1  0
  3  4  2  0
  4  5  1  0
  5  6  2  0
  6  7  1  0
  7  8  2  0
  8  9  1  0
  6 10  1  0
 10 11  1  0
 11 12  1  0
 12 13  2  0
 13 14  1  0
 14 15  2  0
 15 16  1  0
 16 17  2  0
  8  3  1  0
 17 12  1  0
  1 18  1  0
  1 19  1  0
  1 20  1  0
  4 21  1  0
  5 22  1  0
  7 23  1  0
  9 24  1  0
  9 25  1  0
 10 26  1  0
 10 27  1  0
 11 28  1  0
 11 29  1  0
 13 30  1  0
 14 31  1  0
 15 32  1  0
 16 33  1  0
 17 34  1  0
M  END
