
     RDKit          3D

 39 40  0  0  0  0  0  0  0  0999 V2000
    4.6213    1.9702    1.5335 C   0  0  0  0  0  0  0  0  0  0  0  0
    4.0657    1.2588    0.4350 O   0  0  0  0  0  0  0  0  0  0  0  0
    2.7794    0.8036    0.5553 C   0  0  0  0  0  0  0  0  0  0  0  0
    1.9343    1.1304    1.6234 C   0  0  0  0  0  0  0  0  0  0  0  0
    0.6437    0.5960    1.7081 C   0  0  0  0  0  0  0  0  0  0  0  0
    0.1749   -0.2855    0.7316 C   0  0  0  0  0  0  0  0  0  0  0  0
    1.0114   -0.6028   -0.3438 C   0  0  0  0  0  0  0  0  0  0  0  0
    2.2946   -0.0502   -0.4499 C   0  0  0  0  0  0  0  0  0  0  0  0
    2.9826   -0.4731   -1.5590 O   0  0  0  0  0  0  0  0  0  0  0  0
    3.8099    0.5028   -2.1849 C   0  0  0  0  0  0  0  0  0  0  0  0
    3.9412    0.1884   -3.6632 C   0  0  0  0  0  0  0  0  0  0  0  0
    3.4077   -0.7082   -4.2962 O   0  0  0  0  0  0  0  0  0  0  0  0
    4.7630    1.0560   -4.2977 O   0  0  0  0  0  0  0  0  0  0  0  0
   -1.2168   -0.8611    0.8150 C   0  0  0  0  0  0  0  0  0  0  0  0
   -2.2304    0.0001    0.0566 C   0  0  0  0  0  0  0  0  0  0  0  0
   -3.6233   -0.5728    0.1456 C   0  0  0  0  0  0  0  0  0  0  0  0
   -4.0624   -1.5186   -0.7904 C   0  0  0  0  0  0  0  0  0  0  0  0
   -5.3440   -2.0632   -0.6968 C   0  0  0  0  0  0  0  0  0  0  0  0
   -6.1957   -1.6710    0.3342 C   0  0  0  0  0  0  0  0  0  0  0  0
   -5.7665   -0.7350    1.2734 C   0  0  0  0  0  0  0  0  0  0  0  0
   -4.4852   -0.1892    1.1817 C   0  0  0  0  0  0  0  0  0  0  0  0
    5.6696    2.1792    1.2991 H   0  0  0  0  0  0  0  0  0  0  0  0
    4.5990    1.3702    2.4493 H   0  0  0  0  0  0  0  0  0  0  0  0
    4.1155    2.9308    1.6746 H   0  0  0  0  0  0  0  0  0  0  0  0
    2.2494    1.8000    2.4170 H   0  0  0  0  0  0  0  0  0  0  0  0
    0.0109    0.8684    2.5504 H   0  0  0  0  0  0  0  0  0  0  0  0
    0.6666   -1.2824   -1.1212 H   0  0  0  0  0  0  0  0  0  0  0  0
    4.8146    0.4548   -1.7530 H   0  0  0  0  0  0  0  0  0  0  0  0
    3.3800    1.5086   -2.1070 H   0  0  0  0  0  0  0  0  0  0  0  0
    4.7546    0.7390   -5.2256 H   0  0  0  0  0  0  0  0  0  0  0  0
   -1.5086   -0.9572    1.8692 H   0  0  0  0  0  0  0  0  0  0  0  0
   -1.2088   -1.8850    0.4185 H   0  0  0  0  0  0  0  0  0  0  0  0
   -2.2327    1.0252    0.4503 H   0  0  0  0  0  0  0  0  0  0  0  0
   -1.9435    0.0922   -0.9993 H   0  0  0  0  0  0  0  0  0  0  0  0
   -3.4077   -1.8367   -1.5988 H   0  0  0  0  0  0  0  0  0  0  0  0
   -5.6772   -2.7945   -1.4284 H   0  0  0  0  0  0  0  0  0  0  0  0
   -7.1934   -2.0956    0.4062 H   0  0  0  0  0  0  0  0  0  0  0  0
   -6.4299   -0.4304    2.0784 H   0  0  0  0  0  0  0  0  0  0  0  0
   -4.1635    0.5379    1.9236 H   0  0  0  0  0  0  0  0  0  0  0  0
  1  2  1  0
  2  3  1  0
  3  4  2  0
  4  5  1  0
  5  6  2  0
  6  7  1  0
  7  8  2  0
  8  9  1  0
  9 10  1  0
 10 11  1  0
 11 12  2  0
 11 13  1  0
  6 14  1  0
 14 15  1  0
 15 16  1  0
 16 17  2  0
 17 18  1  0
 18 19  2  0
 19 20  1  0
 20 21  2  0
  8  3  1  0
 21 16  1  0
  1 22  1  0
  1 23  1  0
  1 24  1  0
  4 25  1  0
  5 26  1  0
  7 27  1  0
 10 28  1  0
 10 29  1  0
 13 30  1  0
 14 31  1  0
 14 32  1  0
 15 33  1  0
 15 34  1  0
 17 35  1  0
 18 36  1  0
 19 37  1  0
 20 38  1  0
 21 39  1  0
M  END
