
     RDKit          3D

 34 35  0  0  0  0  0  0  0  0999 V2000
    5.7851   -1.5677   -0.2453 N   0  0  0  0  0  0  0  0  0  0  0  0
    4.8928   -0.5650    0.0093 C   0  0  0  0  0  0  0  0  0  0  0  0
    5.2590    0.5986   -0.0546 O   0  0  0  0  0  0  0  0  0  0  0  0
    3.6555   -1.0590    0.3216 N   0  0  0  0  0  0  0  0  0  0  0  0
    2.4772   -0.3311    0.5752 C   0  0  0  0  0  0  0  0  0  0  0  0
    2.3674    1.0494    0.4078 C   0  0  0  0  0  0  0  0  0  0  0  0
    1.1577    1.7023    0.6702 C   0  0  0  0  0  0  0  0  0  0  0  0
    0.0378    0.9843    1.1049 C   0  0  0  0  0  0  0  0  0  0  0  0
    0.1470   -0.4007    1.2653 C   0  0  0  0  0  0  0  0  0  0  0  0
    1.3559   -1.0515    1.0018 C   0  0  0  0  0  0  0  0  0  0  0  0
   -1.2716    1.6893    1.3683 C   0  0  0  0  0  0  0  0  0  0  0  0
   -2.0997    1.9364    0.1009 C   0  0  0  0  0  0  0  0  0  0  0  0
   -2.7214    0.6824   -0.4677 C   0  0  0  0  0  0  0  0  0  0  0  0
   -3.9034    0.1640    0.0787 C   0  0  0  0  0  0  0  0  0  0  0  0
   -4.4682   -1.0037   -0.4368 C   0  0  0  0  0  0  0  0  0  0  0  0
   -3.8562   -1.6652   -1.4998 C   0  0  0  0  0  0  0  0  0  0  0  0
   -2.6784   -1.1606   -2.0477 C   0  0  0  0  0  0  0  0  0  0  0  0
   -2.1128    0.0074   -1.5343 C   0  0  0  0  0  0  0  0  0  0  0  0
    6.6738   -1.2014   -0.5670 H   0  0  0  0  0  0  0  0  0  0  0  0
    5.4421   -2.3335   -0.8069 H   0  0  0  0  0  0  0  0  0  0  0  0
    3.6286   -2.0486    0.5150 H   0  0  0  0  0  0  0  0  0  0  0  0
    3.2069    1.6493    0.0699 H   0  0  0  0  0  0  0  0  0  0  0  0
    1.1012    2.7797    0.5303 H   0  0  0  0  0  0  0  0  0  0  0  0
   -0.7136   -0.9849    1.5848 H   0  0  0  0  0  0  0  0  0  0  0  0
    1.4024   -2.1289    1.1338 H   0  0  0  0  0  0  0  0  0  0  0  0
   -1.8534    1.1260    2.1091 H   0  0  0  0  0  0  0  0  0  0  0  0
   -1.0500    2.6555    1.8404 H   0  0  0  0  0  0  0  0  0  0  0  0
   -2.9087    2.6399    0.3377 H   0  0  0  0  0  0  0  0  0  0  0  0
   -1.4932    2.4323   -0.6680 H   0  0  0  0  0  0  0  0  0  0  0  0
   -4.3918    0.6684    0.9092 H   0  0  0  0  0  0  0  0  0  0  0  0
   -5.3866   -1.3969   -0.0090 H   0  0  0  0  0  0  0  0  0  0  0  0
   -4.2966   -2.5739   -1.9011 H   0  0  0  0  0  0  0  0  0  0  0  0
   -2.1977   -1.6766   -2.8744 H   0  0  0  0  0  0  0  0  0  0  0  0
   -1.1871    0.3840   -1.9647 H   0  0  0  0  0  0  0  0  0  0  0  0
  1  2  1  0
  2  3  2  0
  2  4  1  0
  4  5  1  0
  5  6  2  0
  6  7  1  0
  7  8  2  0
  8  9  1  0
  9 10  2  0
  8 11  1  0
 11 12  1  0
 12 13  1  0
 13 14  2  0
 14 15  1  0
 15 16  2  0
 16 17  1  0
 17 18  2  0
 10  5  1  0
 18 13  1  0
  1 19  1  0
  1 20  1  0
  4 21  1  0
  6 22  1  0
  7 23  1  0
  9 24  1  0
 10 25  1  0
 11 26  1  0
 11 27  1  0
 12 28  1  0
 12 29  1  0
 14 30  1  0
 15 31  1  0
 16 32  1  0
 17 33  1  0
 18 34  1  0
M  END
