
     RDKit          3D

 45 46  0  0  0  0  0  0  0  0999 V2000
   -6.4070   -0.5408   -0.0943 C   0  0  0  0  0  0  0  0  0  0  0  0
   -5.2601   -0.8872   -0.8580 O   0  0  0  0  0  0  0  0  0  0  0  0
   -4.0139   -0.6950   -0.1648 C   0  0  0  0  0  0  0  0  0  0  0  0
   -2.9613   -1.4008   -1.0250 C   0  0  0  0  0  0  0  0  0  0  0  0
   -1.5407   -1.2017   -0.5127 C   0  0  0  0  0  0  0  0  0  0  0  0
   -1.1919    0.2875   -0.3983 C   0  0  0  0  0  0  0  0  0  0  0  0
   -2.2186    0.9934    0.4961 C   0  0  0  0  0  0  0  0  0  0  0  0
   -3.6609    0.7968    0.0235 C   0  0  0  0  0  0  0  0  0  0  0  0
   -4.5116    1.3882    1.0142 O   0  0  0  0  0  0  0  0  0  0  0  0
    0.2278    0.5174    0.1587 C   0  0  0  0  0  0  0  0  0  0  0  0
    1.3343   -0.0288   -0.7521 C   0  0  0  0  0  0  0  0  0  0  0  0
    2.7485    0.4261   -0.3371 C   0  0  0  0  0  0  0  0  0  0  0  0
    3.1417   -0.0850    1.0587 C   0  0  0  0  0  0  0  0  0  0  0  0
    4.5740    0.2992    1.4260 C   0  0  0  0  0  0  0  0  0  0  0  0
    5.5732   -0.1629    0.3719 C   0  0  0  0  0  0  0  0  0  0  0  0
    5.1975    0.3511   -1.0129 C   0  0  0  0  0  0  0  0  0  0  0  0
    3.7710   -0.0412   -1.3880 C   0  0  0  0  0  0  0  0  0  0  0  0
   -7.2810   -0.9836   -0.5806 H   0  0  0  0  0  0  0  0  0  0  0  0
   -6.3448   -0.9337    0.9248 H   0  0  0  0  0  0  0  0  0  0  0  0
   -6.5491    0.5424   -0.0855 H   0  0  0  0  0  0  0  0  0  0  0  0
   -4.0767   -1.1946    0.8108 H   0  0  0  0  0  0  0  0  0  0  0  0
   -3.0314   -1.0404   -2.0603 H   0  0  0  0  0  0  0  0  0  0  0  0
   -3.1900   -2.4729   -1.0739 H   0  0  0  0  0  0  0  0  0  0  0  0
   -0.8529   -1.7053   -1.2005 H   0  0  0  0  0  0  0  0  0  0  0  0
   -1.4322   -1.6901    0.4638 H   0  0  0  0  0  0  0  0  0  0  0  0
   -1.2460    0.7369   -1.3992 H   0  0  0  0  0  0  0  0  0  0  0  0
   -2.1256    0.6340    1.5304 H   0  0  0  0  0  0  0  0  0  0  0  0
   -2.0012    2.0685    0.5425 H   0  0  0  0  0  0  0  0  0  0  0  0
   -3.8364    1.3345   -0.9161 H   0  0  0  0  0  0  0  0  0  0  0  0
   -4.3295    2.3438    1.0152 H   0  0  0  0  0  0  0  0  0  0  0  0
    0.3041    0.0586    1.1516 H   0  0  0  0  0  0  0  0  0  0  0  0
    0.3827    1.5955    0.2934 H   0  0  0  0  0  0  0  0  0  0  0  0
    1.1438    0.3075   -1.7792 H   0  0  0  0  0  0  0  0  0  0  0  0
    1.2981   -1.1245   -0.7642 H   0  0  0  0  0  0  0  0  0  0  0  0
    2.7636    1.5245   -0.3173 H   0  0  0  0  0  0  0  0  0  0  0  0
    2.4691    0.3253    1.8198 H   0  0  0  0  0  0  0  0  0  0  0  0
    3.0393   -1.1770    1.0967 H   0  0  0  0  0  0  0  0  0  0  0  0
    4.8343   -0.1381    2.3966 H   0  0  0  0  0  0  0  0  0  0  0  0
    4.6404    1.3884    1.5391 H   0  0  0  0  0  0  0  0  0  0  0  0
    5.6098   -1.2592    0.3582 H   0  0  0  0  0  0  0  0  0  0  0  0
    6.5774    0.1873    0.6361 H   0  0  0  0  0  0  0  0  0  0  0  0
    5.8966   -0.0482   -1.7563 H   0  0  0  0  0  0  0  0  0  0  0  0
    5.2943    1.4435   -1.0372 H   0  0  0  0  0  0  0  0  0  0  0  0
    3.5260    0.3920   -2.3652 H   0  0  0  0  0  0  0  0  0  0  0  0
    3.7156   -1.1315   -1.5015 H   0  0  0  0  0  0  0  0  0  0  0  0
  1  2  1  0
  2  3  1  0
  3  4  1  0
  4  5  1  0
  5  6  1  0
  6  7  1  0
  7  8  1  0
  8  9  1  0
  6 10  1  0
 10 11  1  0
 11 12  1  0
 12 13  1  0
 13 14  1  0
 14 15  1  0
 15 16  1  0
 16 17  1  0
  8  3  1  0
 17 12  1  0
  1 18  1  0
  1 19  1  0
  1 20  1  0
  3 21  1  0
  4 22  1  0
  4 23  1  0
  5 24  1  0
  5 25  1  0
  6 26  1  0
  7 27  1  0
  7 28  1  0
  8 29  1  0
  9 30  1  0
 10 31  1  0
 10 32  1  0
 11 33  1  0
 11 34  1  0
 12 35  1  0
 13 36  1  0
 13 37  1  0
 14 38  1  0
 14 39  1  0
 15 40  1  0
 15 41  1  0
 16 42  1  0
 16 43  1  0
 17 44  1  0
 17 45  1  0
M  END
