
     RDKit          3D

 38 38  0  0  0  0  0  0  0  0999 V2000
   -6.3447    0.7565   -0.2940 C   0  0  0  0  0  0  0  0  0  0  0  0
   -5.2583   -0.1329   -0.0672 O   0  0  0  0  0  0  0  0  0  0  0  0
   -3.9982    0.5044   -0.3226 C   0  0  0  0  0  0  0  0  0  0  0  0
   -2.8897   -0.5208   -0.0479 C   0  0  0  0  0  0  0  0  0  0  0  0
   -1.5022    0.0754   -0.3046 C   0  0  0  0  0  0  0  0  0  0  0  0
   -0.3177   -0.8633    0.0283 C   0  0  0  0  0  0  0  0  0  0  0  0
    1.0042   -0.0819   -0.1454 C   0  0  0  0  0  0  0  0  0  0  0  0
    2.2383   -0.8439    0.3502 C   0  0  0  0  0  0  0  0  0  0  0  0
    3.4782    0.0158    0.2931 C   0  0  0  0  0  0  0  0  0  0  0  0
    3.8658    0.7781    1.4030 C   0  0  0  0  0  0  0  0  0  0  0  0
    5.0028    1.5854    1.3440 C   0  0  0  0  0  0  0  0  0  0  0  0
    5.7594    1.6416    0.1749 C   0  0  0  0  0  0  0  0  0  0  0  0
    5.3787    0.8923   -0.9369 C   0  0  0  0  0  0  0  0  0  0  0  0
    4.2420    0.0844   -0.8797 C   0  0  0  0  0  0  0  0  0  0  0  0
   -0.3411   -2.1269   -0.8367 C   0  0  0  0  0  0  0  0  0  0  0  0
   -2.9843   -0.9416    1.3163 O   0  0  0  0  0  0  0  0  0  0  0  0
   -6.2802    1.6185    0.3770 H   0  0  0  0  0  0  0  0  0  0  0  0
   -7.2757    0.2219   -0.0878 H   0  0  0  0  0  0  0  0  0  0  0  0
   -6.3557    1.0892   -1.3364 H   0  0  0  0  0  0  0  0  0  0  0  0
   -3.9603    0.8437   -1.3636 H   0  0  0  0  0  0  0  0  0  0  0  0
   -3.8988    1.3630    0.3518 H   0  0  0  0  0  0  0  0  0  0  0  0
   -3.0618   -1.4052   -0.6698 H   0  0  0  0  0  0  0  0  0  0  0  0
   -1.4334    0.3972   -1.3516 H   0  0  0  0  0  0  0  0  0  0  0  0
   -1.3983    0.9776    0.3132 H   0  0  0  0  0  0  0  0  0  0  0  0
   -0.3966   -1.1660    1.0801 H   0  0  0  0  0  0  0  0  0  0  0  0
    0.9299    0.8638    0.4083 H   0  0  0  0  0  0  0  0  0  0  0  0
    1.1364    0.1911   -1.2008 H   0  0  0  0  0  0  0  0  0  0  0  0
    2.0816   -1.1888    1.3800 H   0  0  0  0  0  0  0  0  0  0  0  0
    2.4097   -1.7445   -0.2502 H   0  0  0  0  0  0  0  0  0  0  0  0
    3.2822    0.7472    2.3203 H   0  0  0  0  0  0  0  0  0  0  0  0
    5.2972    2.1714    2.2105 H   0  0  0  0  0  0  0  0  0  0  0  0
    6.6444    2.2704    0.1298 H   0  0  0  0  0  0  0  0  0  0  0  0
    5.9668    0.9374   -1.8496 H   0  0  0  0  0  0  0  0  0  0  0  0
    3.9544   -0.4922   -1.7557 H   0  0  0  0  0  0  0  0  0  0  0  0
   -1.2596   -2.7004   -0.6821 H   0  0  0  0  0  0  0  0  0  0  0  0
    0.4861   -2.7981   -0.5885 H   0  0  0  0  0  0  0  0  0  0  0  0
   -0.2696   -1.8784   -1.9009 H   0  0  0  0  0  0  0  0  0  0  0  0
   -3.9318   -1.1416    1.4529 H   0  0  0  0  0  0  0  0  0  0  0  0
  1  2  1  0
  2  3  1  0
  3  4  1  0
  4  5  1  0
  5  6  1  0
  6  7  1  0
  7  8  1  0
  8  9  1  0
  9 10  2  0
 10 11  1  0
 11 12  2  0
 12 13  1  0
 13 14  2  0
  6 15  1  0
  4 16  1  0
 14  9  1  0
  1 17  1  0
  1 18  1  0
  1 19  1  0
  3 20  1  0
  3 21  1  0
  4 22  1  0
  5 23  1  0
  5 24  1  0
  6 25  1  0
  7 26  1  0
  7 27  1  0
  8 28  1  0
  8 29  1  0
 10 30  1  0
 11 31  1  0
 12 32  1  0
 13 33  1  0
 14 34  1  0
 15 35  1  0
 15 36  1  0
 15 37  1  0
 16 38  1  0
M  END
