
     RDKit          3D

 35 35  0  0  0  0  0  0  0  0999 V2000
   -5.5896    0.4444   -1.5068 C   0  0  0  0  0  0  0  0  0  0  0  0
   -4.3198    0.7129   -0.9252 O   0  0  0  0  0  0  0  0  0  0  0  0
   -3.7282   -0.4784   -0.3869 C   0  0  0  0  0  0  0  0  0  0  0  0
   -2.3705   -0.0965    0.2171 C   0  0  0  0  0  0  0  0  0  0  0  0
   -1.6634   -1.3138    0.8167 C   0  0  0  0  0  0  0  0  0  0  0  0
   -0.3222   -1.0000    1.4914 C   0  0  0  0  0  0  0  0  0  0  0  0
    0.7409   -0.4869    0.5179 C   0  0  0  0  0  0  0  0  0  0  0  0
    2.0854   -0.2887    1.2230 C   0  0  0  0  0  0  0  0  0  0  0  0
    3.1448    0.2075    0.2706 C   0  0  0  0  0  0  0  0  0  0  0  0
    3.9731   -0.6971   -0.4067 C   0  0  0  0  0  0  0  0  0  0  0  0
    4.9415   -0.2364   -1.3002 C   0  0  0  0  0  0  0  0  0  0  0  0
    5.0873    1.1307   -1.5282 C   0  0  0  0  0  0  0  0  0  0  0  0
    4.2639    2.0384   -0.8647 C   0  0  0  0  0  0  0  0  0  0  0  0
    3.2953    1.5795    0.0293 C   0  0  0  0  0  0  0  0  0  0  0  0
   -2.5835    0.8825    1.2390 O   0  0  0  0  0  0  0  0  0  0  0  0
   -6.2811    0.0553   -0.7534 H   0  0  0  0  0  0  0  0  0  0  0  0
   -5.9926    1.3813   -1.9006 H   0  0  0  0  0  0  0  0  0  0  0  0
   -5.4898   -0.2677   -2.3316 H   0  0  0  0  0  0  0  0  0  0  0  0
   -4.3918   -0.8770    0.3894 H   0  0  0  0  0  0  0  0  0  0  0  0
   -3.6010   -1.2202   -1.1830 H   0  0  0  0  0  0  0  0  0  0  0  0
   -1.7549    0.3760   -0.5556 H   0  0  0  0  0  0  0  0  0  0  0  0
   -2.3129   -1.7611    1.5804 H   0  0  0  0  0  0  0  0  0  0  0  0
   -1.5120   -2.0734    0.0402 H   0  0  0  0  0  0  0  0  0  0  0  0
   -0.4694   -0.2718    2.2978 H   0  0  0  0  0  0  0  0  0  0  0  0
    0.0424   -1.9201    1.9653 H   0  0  0  0  0  0  0  0  0  0  0  0
    0.8552   -1.1984   -0.3094 H   0  0  0  0  0  0  0  0  0  0  0  0
    0.4195    0.4641    0.0776 H   0  0  0  0  0  0  0  0  0  0  0  0
    2.4168   -1.2307    1.6781 H   0  0  0  0  0  0  0  0  0  0  0  0
    1.9781    0.4245    2.0501 H   0  0  0  0  0  0  0  0  0  0  0  0
    3.8680   -1.7668   -0.2416 H   0  0  0  0  0  0  0  0  0  0  0  0
    5.5815   -0.9449   -1.8192 H   0  0  0  0  0  0  0  0  0  0  0  0
    5.8412    1.4888   -2.2241 H   0  0  0  0  0  0  0  0  0  0  0  0
    4.3745    3.1045   -1.0438 H   0  0  0  0  0  0  0  0  0  0  0  0
    2.6559    2.2984    0.5370 H   0  0  0  0  0  0  0  0  0  0  0  0
   -3.1828    1.5411    0.8346 H   0  0  0  0  0  0  0  0  0  0  0  0
  1  2  1  0
  2  3  1  0
  3  4  1  0
  4  5  1  0
  5  6  1  0
  6  7  1  0
  7  8  1  0
  8  9  1  0
  9 10  2  0
 10 11  1  0
 11 12  2  0
 12 13  1  0
 13 14  2  0
  4 15  1  0
 14  9  1  0
  1 16  1  0
  1 17  1  0
  1 18  1  0
  3 19  1  0
  3 20  1  0
  4 21  1  0
  5 22  1  0
  5 23  1  0
  6 24  1  0
  6 25  1  0
  7 26  1  0
  7 27  1  0
  8 28  1  0
  8 29  1  0
 10 30  1  0
 11 31  1  0
 12 32  1  0
 13 33  1  0
 14 34  1  0
 15 35  1  0
M  END
