
     RDKit          3D

 32 32  0  0  0  0  0  0  0  0999 V2000
   -4.6309    1.5980    1.0611 C   0  0  0  0  0  0  0  0  0  0  0  0
   -4.1028    0.2862    0.9084 O   0  0  0  0  0  0  0  0  0  0  0  0
   -2.8794    0.2985    0.1561 C   0  0  0  0  0  0  0  0  0  0  0  0
   -2.3915   -1.1506    0.0376 C   0  0  0  0  0  0  0  0  0  0  0  0
   -1.1309   -1.3109   -0.8130 C   0  0  0  0  0  0  0  0  0  0  0  0
    0.0968   -0.6200   -0.2203 C   0  0  0  0  0  0  0  0  0  0  0  0
    1.3517   -0.9201   -1.0444 C   0  0  0  0  0  0  0  0  0  0  0  0
    2.5641   -0.2234   -0.4792 C   0  0  0  0  0  0  0  0  0  0  0  0
    3.3248   -0.8288    0.5300 C   0  0  0  0  0  0  0  0  0  0  0  0
    4.4360   -0.1760    1.0659 C   0  0  0  0  0  0  0  0  0  0  0  0
    4.7943    1.0881    0.6015 C   0  0  0  0  0  0  0  0  0  0  0  0
    4.0411    1.7014   -0.3979 C   0  0  0  0  0  0  0  0  0  0  0  0
    2.9294    1.0503   -0.9350 C   0  0  0  0  0  0  0  0  0  0  0  0
   -3.4310   -1.9289   -0.5718 O   0  0  0  0  0  0  0  0  0  0  0  0
   -4.8586    2.0350    0.0842 H   0  0  0  0  0  0  0  0  0  0  0  0
   -5.5569    1.5308    1.6384 H   0  0  0  0  0  0  0  0  0  0  0  0
   -3.9252    2.2337    1.6043 H   0  0  0  0  0  0  0  0  0  0  0  0
   -3.0853    0.7124   -0.8377 H   0  0  0  0  0  0  0  0  0  0  0  0
   -2.1437    0.9222    0.6734 H   0  0  0  0  0  0  0  0  0  0  0  0
   -2.2330   -1.5721    1.0370 H   0  0  0  0  0  0  0  0  0  0  0  0
   -1.3203   -0.9337   -1.8264 H   0  0  0  0  0  0  0  0  0  0  0  0
   -0.9264   -2.3829   -0.9347 H   0  0  0  0  0  0  0  0  0  0  0  0
   -0.0640    0.4639   -0.1853 H   0  0  0  0  0  0  0  0  0  0  0  0
    0.2424   -0.9541    0.8146 H   0  0  0  0  0  0  0  0  0  0  0  0
    1.5363   -2.0014   -1.0758 H   0  0  0  0  0  0  0  0  0  0  0  0
    1.2035   -0.6085   -2.0862 H   0  0  0  0  0  0  0  0  0  0  0  0
    3.0553   -1.8139    0.9041 H   0  0  0  0  0  0  0  0  0  0  0  0
    5.0219   -0.6543    1.8463 H   0  0  0  0  0  0  0  0  0  0  0  0
    5.6600    1.5954    1.0188 H   0  0  0  0  0  0  0  0  0  0  0  0
    4.3196    2.6877   -0.7596 H   0  0  0  0  0  0  0  0  0  0  0  0
    2.3502    1.5425   -1.7127 H   0  0  0  0  0  0  0  0  0  0  0  0
   -4.2478   -1.6666   -0.1014 H   0  0  0  0  0  0  0  0  0  0  0  0
  1  2  1  0
  2  3  1  0
  3  4  1  0
  4  5  1  0
  5  6  1  0
  6  7  1  0
  7  8  1  0
  8  9  2  0
  9 10  1  0
 10 11  2  0
 11 12  1  0
 12 13  2  0
  4 14  1  0
 13  8  1  0
  1 15  1  0
  1 16  1  0
  1 17  1  0
  3 18  1  0
  3 19  1  0
  4 20  1  0
  5 21  1  0
  5 22  1  0
  6 23  1  0
  6 24  1  0
  7 25  1  0
  7 26  1  0
  9 27  1  0
 10 28  1  0
 11 29  1  0
 12 30  1  0
 13 31  1  0
 14 32  1  0
M  END
