
     RDKit          3D

 43 43  0  0  0  0  0  0  0  0999 V2000
   -4.1423   -3.3058    1.2093 C   0  0  0  0  0  0  0  0  0  0  0  0
   -3.0583   -2.5037    0.7605 O   0  0  0  0  0  0  0  0  0  0  0  0
   -3.2459   -2.0702   -0.5853 C   0  0  0  0  0  0  0  0  0  0  0  0
   -2.0556   -1.2123   -1.0079 C   0  0  0  0  0  0  0  0  0  0  0  0
   -1.9487    0.0727   -0.1777 C   0  0  0  0  0  0  0  0  0  0  0  0
   -0.8596    1.0524   -0.6755 C   0  0  0  0  0  0  0  0  0  0  0  0
    0.5513    0.4260   -0.7382 C   0  0  0  0  0  0  0  0  0  0  0  0
    1.1136   -0.0329    0.6116 C   0  0  0  0  0  0  0  0  0  0  0  0
    2.4825   -0.6504    0.4546 C   0  0  0  0  0  0  0  0  0  0  0  0
    3.6311    0.1519    0.4748 C   0  0  0  0  0  0  0  0  0  0  0  0
    4.8944   -0.4186    0.3120 C   0  0  0  0  0  0  0  0  0  0  0  0
    5.0205   -1.7938    0.1236 C   0  0  0  0  0  0  0  0  0  0  0  0
    3.8836   -2.5996    0.0959 C   0  0  0  0  0  0  0  0  0  0  0  0
    2.6194   -2.0310    0.2582 C   0  0  0  0  0  0  0  0  0  0  0  0
   -0.9261    2.3431    0.1742 C   0  0  0  0  0  0  0  0  0  0  0  0
    0.0388    3.4397   -0.2828 C   0  0  0  0  0  0  0  0  0  0  0  0
   -0.1840    4.7311    0.4902 C   0  0  0  0  0  0  0  0  0  0  0  0
   -3.9427   -3.6085    2.2407 H   0  0  0  0  0  0  0  0  0  0  0  0
   -4.2348   -4.2049    0.5926 H   0  0  0  0  0  0  0  0  0  0  0  0
   -5.0757   -2.7352    1.1869 H   0  0  0  0  0  0  0  0  0  0  0  0
   -4.1769   -1.4972   -0.6656 H   0  0  0  0  0  0  0  0  0  0  0  0
   -3.3133   -2.9458   -1.2410 H   0  0  0  0  0  0  0  0  0  0  0  0
   -2.1546   -0.9598   -2.0696 H   0  0  0  0  0  0  0  0  0  0  0  0
   -1.1417   -1.8037   -0.8843 H   0  0  0  0  0  0  0  0  0  0  0  0
   -2.9184    0.5868   -0.2111 H   0  0  0  0  0  0  0  0  0  0  0  0
   -1.7736   -0.1785    0.8752 H   0  0  0  0  0  0  0  0  0  0  0  0
   -1.1240    1.3311   -1.7053 H   0  0  0  0  0  0  0  0  0  0  0  0
    1.2435    1.1435   -1.1966 H   0  0  0  0  0  0  0  0  0  0  0  0
    0.5383   -0.4215   -1.4351 H   0  0  0  0  0  0  0  0  0  0  0  0
    0.4468   -0.7641    1.0827 H   0  0  0  0  0  0  0  0  0  0  0  0
    1.1843    0.8089    1.3100 H   0  0  0  0  0  0  0  0  0  0  0  0
    3.5463    1.2268    0.6169 H   0  0  0  0  0  0  0  0  0  0  0  0
    5.7802    0.2106    0.3312 H   0  0  0  0  0  0  0  0  0  0  0  0
    6.0043   -2.2374   -0.0029 H   0  0  0  0  0  0  0  0  0  0  0  0
    3.9805   -3.6717   -0.0531 H   0  0  0  0  0  0  0  0  0  0  0  0
    1.7398   -2.6705    0.2312 H   0  0  0  0  0  0  0  0  0  0  0  0
   -0.7416    2.1110    1.2302 H   0  0  0  0  0  0  0  0  0  0  0  0
   -1.9494    2.7385    0.1236 H   0  0  0  0  0  0  0  0  0  0  0  0
   -0.0961    3.6337   -1.3530 H   0  0  0  0  0  0  0  0  0  0  0  0
    1.0762    3.1227   -0.1334 H   0  0  0  0  0  0  0  0  0  0  0  0
    0.5189    5.4998    0.1540 H   0  0  0  0  0  0  0  0  0  0  0  0
   -1.1995    5.1102    0.3378 H   0  0  0  0  0  0  0  0  0  0  0  0
   -0.0315    4.5768    1.5632 H   0  0  0  0  0  0  0  0  0  0  0  0
  1  2  1  0
  2  3  1  0
  3  4  1  0
  4  5  1  0
  5  6  1  0
  6  7  1  0
  7  8  1  0
  8  9  1  0
  9 10  2  0
 10 11  1  0
 11 12  2  0
 12 13  1  0
 13 14  2  0
  6 15  1  0
 15 16  1  0
 16 17  1  0
 14  9  1  0
  1 18  1  0
  1 19  1  0
  1 20  1  0
  3 21  1  0
  3 22  1  0
  4 23  1  0
  4 24  1  0
  5 25  1  0
  5 26  1  0
  6 27  1  0
  7 28  1  0
  7 29  1  0
  8 30  1  0
  8 31  1  0
 10 32  1  0
 11 33  1  0
 12 34  1  0
 13 35  1  0
 14 36  1  0
 15 37  1  0
 15 38  1  0
 16 39  1  0
 16 40  1  0
 17 41  1  0
 17 42  1  0
 17 43  1  0
M  END
