
     RDKit          3D

136143  0  0  0  0  0  0  0  0999 V2000
   -3.8227    5.2950   -0.3984 O   0  0  0  0  0  0  0  0  0  0  0  0
   -3.3693    4.1301   -1.0796 C   0  0  0  0  0  0  0  0  0  0  0  0
   -3.0692    2.9733   -0.1092 C   0  0  0  0  0  0  0  0  0  0  0  0
   -2.4330    1.9320   -0.8738 O   0  0  0  0  0  0  0  0  0  0  0  0
   -2.3748    0.7074   -0.1466 C   0  0  0  0  0  0  0  0  0  0  0  0
   -1.5279   -0.2319   -0.8097 O   0  0  0  0  0  0  0  0  0  0  0  0
   -0.1327   -0.1306   -0.5569 C   0  0  0  0  0  0  0  0  0  0  0  0
    0.4484    1.2965   -0.5790 C   0  0  0  0  0  0  0  0  0  0  0  0
    1.9607    1.3348   -0.3237 C   0  0  0  0  0  0  0  0  0  0  0  0
    2.7488    0.2514   -1.1066 C   0  0  0  0  0  0  0  0  0  0  0  0
    2.0030   -1.1213   -1.0591 C   0  0  0  0  0  0  0  0  0  0  0  0
    0.5925   -0.9388   -1.6559 C   0  0  0  0  0  0  0  0  0  0  0  0
    1.6238   -1.6086    0.3590 C   0  0  0  0  0  0  0  0  0  0  0  0
    0.3181   -0.9157    0.6716 C   0  0  0  0  0  0  0  0  0  0  0  0
   -0.2877   -1.0822    1.8558 C   0  0  0  0  0  0  0  0  0  0  0  0
    2.8068   -2.1660   -1.8276 C   0  0  0  0  0  0  0  0  0  0  0  0
    4.1764   -2.3421   -1.1975 C   0  0  0  0  0  0  0  0  0  0  0  0
    5.0683   -1.0814   -1.2635 C   0  0  0  0  0  0  0  0  0  0  0  0
    4.3107    0.2335   -0.7825 C   0  0  0  0  0  0  0  0  0  0  0  0
    4.5840    0.3855    0.7412 C   0  0  0  0  0  0  0  0  0  0  0  0
    4.9553    1.5002   -1.4324 C   0  0  0  0  0  0  0  0  0  0  0  0
    5.0235    1.4704   -2.9601 C   0  0  0  0  0  0  0  0  0  0  0  0
    5.2235    0.0763   -3.5456 C   0  0  0  0  0  0  0  0  0  0  0  0
    5.9285   -0.9023   -2.5874 C   0  0  0  0  0  0  0  0  0  0  0  0
    6.1639   -2.2283   -3.3459 C   0  0  0  0  0  0  0  0  0  0  0  0
    7.3632   -0.3609   -2.3210 C   0  0  0  0  0  0  0  0  0  0  0  0
    8.1627   -0.0846   -3.2059 O   0  0  0  0  0  0  0  0  0  0  0  0
    7.6355   -0.2198   -1.0027 O   0  0  0  0  0  0  0  0  0  0  0  0
    8.8828    0.3962   -0.6803 C   0  0  0  0  0  0  0  0  0  0  0  0
    8.7926    1.0078    0.6193 O   0  0  0  0  0  0  0  0  0  0  0  0
    8.6679    0.0592    1.6830 C   0  0  0  0  0  0  0  0  0  0  0  0
    8.5248    0.8567    2.9924 C   0  0  0  0  0  0  0  0  0  0  0  0
    8.4220   -0.0098    4.1242 O   0  0  0  0  0  0  0  0  0  0  0  0
    9.8718   -0.8971    1.7406 C   0  0  0  0  0  0  0  0  0  0  0  0
   10.0799   -1.5806    0.3809 C   0  0  0  0  0  0  0  0  0  0  0  0
   10.0894   -0.5701   -0.7680 C   0  0  0  0  0  0  0  0  0  0  0  0
   11.3212    0.1702   -0.7034 O   0  0  0  0  0  0  0  0  0  0  0  0
    9.0490   -2.5659    0.1820 O   0  0  0  0  0  0  0  0  0  0  0  0
    9.6730   -1.9325    2.7234 O   0  0  0  0  0  0  0  0  0  0  0  0
   -3.8002    0.1073   -0.0625 C   0  0  0  0  0  0  0  0  0  0  0  0
   -4.8731    1.2251   -0.1088 C   0  0  0  0  0  0  0  0  0  0  0  0
   -4.3324    2.4563    0.6395 C   0  0  0  0  0  0  0  0  0  0  0  0
   -5.3095    3.4872    0.7873 O   0  0  0  0  0  0  0  0  0  0  0  0
   -6.0964    0.7162    0.4522 O   0  0  0  0  0  0  0  0  0  0  0  0
   -7.2875    1.2984   -0.0844 C   0  0  0  0  0  0  0  0  0  0  0  0
   -7.7086    2.3662    0.7692 O   0  0  0  0  0  0  0  0  0  0  0  0
   -8.7743    3.1515    0.1892 C   0  0  0  0  0  0  0  0  0  0  0  0
   -8.1650    4.3111   -0.6231 C   0  0  0  0  0  0  0  0  0  0  0  0
   -9.1566    5.1534   -1.1750 O   0  0  0  0  0  0  0  0  0  0  0  0
   -9.7722    2.2879   -0.6253 C   0  0  0  0  0  0  0  0  0  0  0  0
   -9.7838    0.8367   -0.1163 C   0  0  0  0  0  0  0  0  0  0  0  0
   -8.3811    0.2080   -0.1197 C   0  0  0  0  0  0  0  0  0  0  0  0
   -8.1901   -0.5961   -1.2922 O   0  0  0  0  0  0  0  0  0  0  0  0
  -10.3449    0.8273    1.2138 O   0  0  0  0  0  0  0  0  0  0  0  0
  -11.1011    2.8147   -0.5256 O   0  0  0  0  0  0  0  0  0  0  0  0
   -3.9229   -0.6165    1.1848 O   0  0  0  0  0  0  0  0  0  0  0  0
   -3.7933   -2.0293    1.0208 C   0  0  0  0  0  0  0  0  0  0  0  0
   -3.3801   -2.6238    2.2606 O   0  0  0  0  0  0  0  0  0  0  0  0
   -4.3433   -2.4942    3.3160 C   0  0  0  0  0  0  0  0  0  0  0  0
   -3.7244   -3.1107    4.5666 C   0  0  0  0  0  0  0  0  0  0  0  0
   -5.6685   -3.1769    2.9396 C   0  0  0  0  0  0  0  0  0  0  0  0
   -6.1859   -2.6022    1.6144 C   0  0  0  0  0  0  0  0  0  0  0  0
   -5.1067   -2.6707    0.5254 C   0  0  0  0  0  0  0  0  0  0  0  0
   -4.9139   -4.0516    0.1623 O   0  0  0  0  0  0  0  0  0  0  0  0
   -7.3430   -3.3502    1.1980 O   0  0  0  0  0  0  0  0  0  0  0  0
   -5.4849   -4.5975    2.7880 O   0  0  0  0  0  0  0  0  0  0  0  0
   -4.5832    4.9980    0.1512 H   0  0  0  0  0  0  0  0  0  0  0  0
   -2.4705    4.3937   -1.6465 H   0  0  0  0  0  0  0  0  0  0  0  0
   -4.1299    3.8323   -1.8102 H   0  0  0  0  0  0  0  0  0  0  0  0
   -2.3571    3.3420    0.6395 H   0  0  0  0  0  0  0  0  0  0  0  0
   -1.9912    0.9061    0.8576 H   0  0  0  0  0  0  0  0  0  0  0  0
    0.2354    1.7618   -1.5494 H   0  0  0  0  0  0  0  0  0  0  0  0
   -0.0316    1.9369    0.1692 H   0  0  0  0  0  0  0  0  0  0  0  0
    2.1066    1.2060    0.7554 H   0  0  0  0  0  0  0  0  0  0  0  0
    2.3303    2.3379   -0.5661 H   0  0  0  0  0  0  0  0  0  0  0  0
    2.6726    0.5567   -2.1615 H   0  0  0  0  0  0  0  0  0  0  0  0
    0.0932   -1.9044   -1.8286 H   0  0  0  0  0  0  0  0  0  0  0  0
    0.5954   -0.4161   -2.6211 H   0  0  0  0  0  0  0  0  0  0  0  0
    1.4536   -2.6935    0.3636 H   0  0  0  0  0  0  0  0  0  0  0  0
    2.3795   -1.3791    1.1090 H   0  0  0  0  0  0  0  0  0  0  0  0
    0.1582   -1.7097    2.6223 H   0  0  0  0  0  0  0  0  0  0  0  0
   -1.2412   -0.6372    2.1109 H   0  0  0  0  0  0  0  0  0  0  0  0
    2.2853   -3.1320   -1.8181 H   0  0  0  0  0  0  0  0  0  0  0  0
    2.9005   -1.8877   -2.8842 H   0  0  0  0  0  0  0  0  0  0  0  0
    4.6706   -3.2181   -1.6304 H   0  0  0  0  0  0  0  0  0  0  0  0
    4.0462   -2.6151   -0.1408 H   0  0  0  0  0  0  0  0  0  0  0  0
    5.8049   -1.3234   -0.4853 H   0  0  0  0  0  0  0  0  0  0  0  0
    5.6595    0.4006    0.9433 H   0  0  0  0  0  0  0  0  0  0  0  0
    4.1679   -0.4384    1.3260 H   0  0  0  0  0  0  0  0  0  0  0  0
    4.1972    1.3298    1.1370 H   0  0  0  0  0  0  0  0  0  0  0  0
    5.9722    1.6395   -1.0461 H   0  0  0  0  0  0  0  0  0  0  0  0
    4.4305    2.4137   -1.1273 H   0  0  0  0  0  0  0  0  0  0  0  0
    5.8473    2.1241   -3.2786 H   0  0  0  0  0  0  0  0  0  0  0  0
    4.1163    1.9116   -3.3902 H   0  0  0  0  0  0  0  0  0  0  0  0
    4.2448   -0.3268   -3.8322 H   0  0  0  0  0  0  0  0  0  0  0  0
    5.7807    0.1766   -4.4873 H   0  0  0  0  0  0  0  0  0  0  0  0
    6.6775   -2.9609   -2.7119 H   0  0  0  0  0  0  0  0  0  0  0  0
    5.2250   -2.6638   -3.7051 H   0  0  0  0  0  0  0  0  0  0  0  0
    6.7917   -2.0756   -4.2328 H   0  0  0  0  0  0  0  0  0  0  0  0
    9.0479    1.2405   -1.3571 H   0  0  0  0  0  0  0  0  0  0  0  0
    7.7452   -0.5255    1.5637 H   0  0  0  0  0  0  0  0  0  0  0  0
    9.3886    1.5216    3.1302 H   0  0  0  0  0  0  0  0  0  0  0  0
    7.6305    1.4908    2.9446 H   0  0  0  0  0  0  0  0  0  0  0  0
    8.0737    0.5293    4.8572 H   0  0  0  0  0  0  0  0  0  0  0  0
   10.7793   -0.3382    2.0051 H   0  0  0  0  0  0  0  0  0  0  0  0
   11.0291   -2.1308    0.4105 H   0  0  0  0  0  0  0  0  0  0  0  0
   10.0714   -1.1154   -1.7190 H   0  0  0  0  0  0  0  0  0  0  0  0
   11.3898    0.6776   -1.5324 H   0  0  0  0  0  0  0  0  0  0  0  0
    8.9770   -3.0096    1.0559 H   0  0  0  0  0  0  0  0  0  0  0  0
    9.2945   -1.4887    3.5140 H   0  0  0  0  0  0  0  0  0  0  0  0
   -3.9836   -0.5684   -0.9067 H   0  0  0  0  0  0  0  0  0  0  0  0
   -5.0375    1.4883   -1.1627 H   0  0  0  0  0  0  0  0  0  0  0  0
   -4.0517    2.1584    1.6566 H   0  0  0  0  0  0  0  0  0  0  0  0
   -6.0861    3.0653    1.2200 H   0  0  0  0  0  0  0  0  0  0  0  0
   -7.0972    1.6688   -1.1006 H   0  0  0  0  0  0  0  0  0  0  0  0
   -9.3168    3.6003    1.0309 H   0  0  0  0  0  0  0  0  0  0  0  0
   -7.5341    3.9335   -1.4345 H   0  0  0  0  0  0  0  0  0  0  0  0
   -7.5202    4.9092    0.0320 H   0  0  0  0  0  0  0  0  0  0  0  0
   -8.7073    5.9377   -1.5440 H   0  0  0  0  0  0  0  0  0  0  0  0
   -9.4917    2.2926   -1.6878 H   0  0  0  0  0  0  0  0  0  0  0  0
  -10.4731    0.2450   -0.7307 H   0  0  0  0  0  0  0  0  0  0  0  0
   -8.2676   -0.4584    0.7435 H   0  0  0  0  0  0  0  0  0  0  0  0
   -8.7695   -1.3802   -1.2025 H   0  0  0  0  0  0  0  0  0  0  0  0
   -9.6704    1.1691    1.8313 H   0  0  0  0  0  0  0  0  0  0  0  0
  -11.4950    2.4209    0.2805 H   0  0  0  0  0  0  0  0  0  0  0  0
   -2.9873   -2.2551    0.3143 H   0  0  0  0  0  0  0  0  0  0  0  0
   -4.5138   -1.4271    3.5112 H   0  0  0  0  0  0  0  0  0  0  0  0
   -2.7974   -2.5808    4.8289 H   0  0  0  0  0  0  0  0  0  0  0  0
   -3.4457   -4.1581    4.4029 H   0  0  0  0  0  0  0  0  0  0  0  0
   -4.4105   -3.0537    5.4185 H   0  0  0  0  0  0  0  0  0  0  0  0
   -6.4130   -3.0394    3.7323 H   0  0  0  0  0  0  0  0  0  0  0  0
   -6.4971   -1.5647    1.7774 H   0  0  0  0  0  0  0  0  0  0  0  0
   -5.4843   -2.1682   -0.3721 H   0  0  0  0  0  0  0  0  0  0  0  0
   -4.5395   -4.4907    0.9611 H   0  0  0  0  0  0  0  0  0  0  0  0
   -7.0205   -3.9721    0.5085 H   0  0  0  0  0  0  0  0  0  0  0  0
   -6.3647   -4.9426    2.5410 H   0  0  0  0  0  0  0  0  0  0  0  0
  1  2  1  0
  2  3  1  0
  3  4  1  0
  4  5  1  0
  5  6  1  0
  6  7  1  0
  7  8  1  0
  8  9  1  0
  9 10  1  0
 10 11  1  0
 11 12  1  0
 11 13  1  0
 13 14  1  0
 14 15  2  0
 11 16  1  0
 16 17  1  0
 17 18  1  0
 18 19  1  0
 19 20  1  0
 19 21  1  0
 21 22  1  0
 22 23  1  0
 23 24  1  0
 24 25  1  0
 24 26  1  0
 26 27  2  0
 26 28  1  0
 28 29  1  0
 29 30  1  0
 30 31  1  0
 31 32  1  0
 32 33  1  0
 31 34  1  0
 34 35  1  0
 35 36  1  0
 36 37  1  0
 35 38  1  0
 34 39  1  0
  5 40  1  0
 40 41  1  0
 41 42  1  0
 42 43  1  0
 41 44  1  0
 44 45  1  0
 45 46  1  0
 46 47  1  0
 47 48  1  0
 48 49  1  0
 47 50  1  0
 50 51  1  0
 51 52  1  0
 52 53  1  0
 51 54  1  0
 50 55  1  0
 40 56  1  0
 56 57  1  0
 57 58  1  0
 58 59  1  0
 59 60  1  0
 59 61  1  0
 61 62  1  0
 62 63  1  0
 63 64  1  0
 62 65  1  0
 61 66  1  0
 42  3  1  0
 52 45  1  0
 63 57  1  0
 12  7  1  0
 24 18  1  0
 36 29  1  0
 14  7  1  0
 19 10  1  0
  1 67  1  0
  2 68  1  0
  2 69  1  0
  3 70  1  0
  5 71  1  0
  8 72  1  0
  8 73  1  0
  9 74  1  0
  9 75  1  0
 10 76  1  0
 12 77  1  0
 12 78  1  0
 13 79  1  0
 13 80  1  0
 15 81  1  0
 15 82  1  0
 16 83  1  0
 16 84  1  0
 17 85  1  0
 17 86  1  0
 18 87  1  0
 20 88  1  0
 20 89  1  0
 20 90  1  0
 21 91  1  0
 21 92  1  0
 22 93  1  0
 22 94  1  0
 23 95  1  0
 23 96  1  0
 25 97  1  0
 25 98  1  0
 25 99  1  0
 29100  1  0
 31101  1  0
 32102  1  0
 32103  1  0
 33104  1  0
 34105  1  0
 35106  1  0
 36107  1  0
 37108  1  0
 38109  1  0
 39110  1  0
 40111  1  0
 41112  1  0
 42113  1  0
 43114  1  0
 45115  1  0
 47116  1  0
 48117  1  0
 48118  1  0
 49119  1  0
 50120  1  0
 51121  1  0
 52122  1  0
 53123  1  0
 54124  1  0
 55125  1  0
 57126  1  0
 59127  1  0
 60128  1  0
 60129  1  0
 60130  1  0
 61131  1  0
 62132  1  0
 63133  1  0
 64134  1  0
 65135  1  0
 66136  1  0
M  END
