
     RDKit          3D

 32 34  0  0  0  0  0  0  0  0999 V2000
    5.8904   -0.0944    0.6621 C   0  0  0  0  0  0  0  0  0  0  0  0
    4.9243   -1.0434    0.2243 O   0  0  0  0  0  0  0  0  0  0  0  0
    3.6188   -0.6267    0.2145 C   0  0  0  0  0  0  0  0  0  0  0  0
    3.1488    0.6248    0.6018 C   0  0  0  0  0  0  0  0  0  0  0  0
    1.7765    0.9086    0.5373 C   0  0  0  0  0  0  0  0  0  0  0  0
    0.8501   -0.0500    0.0919 C   0  0  0  0  0  0  0  0  0  0  0  0
    1.3335   -1.3025   -0.3062 C   0  0  0  0  0  0  0  0  0  0  0  0
    2.6968   -1.5759   -0.2373 C   0  0  0  0  0  0  0  0  0  0  0  0
    3.1247   -2.8157   -0.6321 O   0  0  0  0  0  0  0  0  0  0  0  0
   -0.5863    0.2852    0.0264 C   0  0  0  0  0  0  0  0  0  0  0  0
   -1.5629   -0.5963    0.2795 C   0  0  0  0  0  0  0  0  0  0  0  0
   -2.9468   -0.1551    0.1916 C   0  0  0  0  0  0  0  0  0  0  0  0
   -4.0009   -1.0436    0.4353 C   0  0  0  0  0  0  0  0  0  0  0  0
   -5.3249   -0.6062    0.3471 C   0  0  0  0  0  0  0  0  0  0  0  0
   -5.6045    0.7188    0.0159 C   0  0  0  0  0  0  0  0  0  0  0  0
   -4.5592    1.6096   -0.2276 C   0  0  0  0  0  0  0  0  0  0  0  0
   -3.2307    1.1714   -0.1395 C   0  0  0  0  0  0  0  0  0  0  0  0
   -2.1272    2.1258   -0.3969 C   0  0  0  0  0  0  0  0  0  0  0  0
   -2.3515    3.2982   -0.6751 O   0  0  0  0  0  0  0  0  0  0  0  0
   -0.8567    1.6343   -0.3035 O   0  0  0  0  0  0  0  0  0  0  0  0
    5.9079    0.7824    0.0064 H   0  0  0  0  0  0  0  0  0  0  0  0
    5.7167    0.1929    1.7044 H   0  0  0  0  0  0  0  0  0  0  0  0
    6.8742   -0.5705    0.6076 H   0  0  0  0  0  0  0  0  0  0  0  0
    3.8129    1.4054    0.9571 H   0  0  0  0  0  0  0  0  0  0  0  0
    1.4354    1.8959    0.8461 H   0  0  0  0  0  0  0  0  0  0  0  0
    0.6680   -2.0722   -0.6859 H   0  0  0  0  0  0  0  0  0  0  0  0
    4.0949   -2.7947   -0.5163 H   0  0  0  0  0  0  0  0  0  0  0  0
   -1.3623   -1.6249    0.5580 H   0  0  0  0  0  0  0  0  0  0  0  0
   -3.8039   -2.0816    0.6947 H   0  0  0  0  0  0  0  0  0  0  0  0
   -6.1397   -1.3013    0.5369 H   0  0  0  0  0  0  0  0  0  0  0  0
   -6.6353    1.0584   -0.0528 H   0  0  0  0  0  0  0  0  0  0  0  0
   -4.7809    2.6436   -0.4855 H   0  0  0  0  0  0  0  0  0  0  0  0
  1  2  1  0
  2  3  1  0
  3  4  2  0
  4  5  1  0
  5  6  2  0
  6  7  1  0
  7  8  2  0
  8  9  1  0
  6 10  1  0
 10 11  2  0
 11 12  1  0
 12 13  2  0
 13 14  1  0
 14 15  2  0
 15 16  1  0
 16 17  2  0
 17 18  1  0
 18 19  2  0
 18 20  1  0
  8  3  1  0
 20 10  1  0
 17 12  1  0
  1 21  1  0
  1 22  1  0
  1 23  1  0
  4 24  1  0
  5 25  1  0
  7 26  1  0
  9 27  1  0
 11 28  1  0
 13 29  1  0
 14 30  1  0
 15 31  1  0
 16 32  1  0
M  END
