
     RDKit          3D

 32 34  0  0  0  0  0  0  0  0999 V2000
    5.5392    1.3083    0.1678 C   0  0  0  0  0  0  0  0  0  0  0  0
    4.8977    0.1260   -0.2969 O   0  0  0  0  0  0  0  0  0  0  0  0
    3.5509    0.0280   -0.0600 C   0  0  0  0  0  0  0  0  0  0  0  0
    2.7525    0.9797    0.5702 C   0  0  0  0  0  0  0  0  0  0  0  0
    1.3825    0.7408    0.7433 C   0  0  0  0  0  0  0  0  0  0  0  0
    0.7902   -0.4544    0.2974 C   0  0  0  0  0  0  0  0  0  0  0  0
    1.5969   -1.4027   -0.3450 C   0  0  0  0  0  0  0  0  0  0  0  0
    2.9550   -1.1543   -0.5122 C   0  0  0  0  0  0  0  0  0  0  0  0
    3.7095   -2.1081   -1.1412 O   0  0  0  0  0  0  0  0  0  0  0  0
   -0.6949   -0.7025    0.4682 C   0  0  0  0  0  0  0  0  0  0  0  0
   -1.0549   -0.3882    1.8157 O   0  0  0  0  0  0  0  0  0  0  0  0
   -2.3731   -0.3223    2.0990 C   0  0  0  0  0  0  0  0  0  0  0  0
   -2.8036   -0.3644    3.2427 O   0  0  0  0  0  0  0  0  0  0  0  0
   -3.2652   -0.1527    0.9396 C   0  0  0  0  0  0  0  0  0  0  0  0
   -2.7137    0.0601   -0.3179 C   0  0  0  0  0  0  0  0  0  0  0  0
   -1.3675    0.0650   -0.5302 O   0  0  0  0  0  0  0  0  0  0  0  0
   -3.5389    0.3084   -1.4129 C   0  0  0  0  0  0  0  0  0  0  0  0
   -4.9254    0.3135   -1.2497 C   0  0  0  0  0  0  0  0  0  0  0  0
   -5.4834    0.0835    0.0090 C   0  0  0  0  0  0  0  0  0  0  0  0
   -4.6541   -0.1439    1.1084 C   0  0  0  0  0  0  0  0  0  0  0  0
    5.1402    2.1963   -0.3334 H   0  0  0  0  0  0  0  0  0  0  0  0
    6.6013    1.2327   -0.0848 H   0  0  0  0  0  0  0  0  0  0  0  0
    5.4614    1.3982    1.2563 H   0  0  0  0  0  0  0  0  0  0  0  0
    3.1557    1.9170    0.9383 H   0  0  0  0  0  0  0  0  0  0  0  0
    0.7718    1.4973    1.2346 H   0  0  0  0  0  0  0  0  0  0  0  0
    1.1811   -2.3343   -0.7195 H   0  0  0  0  0  0  0  0  0  0  0  0
    4.6157   -1.7423   -1.1516 H   0  0  0  0  0  0  0  0  0  0  0  0
   -0.8964   -1.7712    0.3044 H   0  0  0  0  0  0  0  0  0  0  0  0
   -3.1054    0.4916   -2.3929 H   0  0  0  0  0  0  0  0  0  0  0  0
   -5.5715    0.5011   -2.1044 H   0  0  0  0  0  0  0  0  0  0  0  0
   -6.5637    0.0937    0.1359 H   0  0  0  0  0  0  0  0  0  0  0  0
   -5.0900   -0.3001    2.0934 H   0  0  0  0  0  0  0  0  0  0  0  0
  1  2  1  0
  2  3  1  0
  3  4  2  0
  4  5  1  0
  5  6  2  0
  6  7  1  0
  7  8  2  0
  8  9  1  0
  6 10  1  0
 10 11  1  0
 11 12  1  0
 12 13  2  0
 12 14  1  0
 14 15  2  0
 15 16  1  0
 15 17  1  0
 17 18  2  0
 18 19  1  0
 19 20  2  0
  8  3  1  0
 16 10  1  0
 20 14  1  0
  1 21  1  0
  1 22  1  0
  1 23  1  0
  4 24  1  0
  5 25  1  0
  7 26  1  0
  9 27  1  0
 10 28  1  0
 17 29  1  0
 18 30  1  0
 19 31  1  0
 20 32  1  0
M  END
