
     RDKit          3D

 32 34  0  0  0  0  0  0  0  0999 V2000
   -5.8977   -0.1984    0.2748 C   0  0  0  0  0  0  0  0  0  0  0  0
   -4.9592    0.4896    1.0940 O   0  0  0  0  0  0  0  0  0  0  0  0
   -3.6407    0.3846    0.7334 C   0  0  0  0  0  0  0  0  0  0  0  0
   -3.1351   -0.3372   -0.3451 C   0  0  0  0  0  0  0  0  0  0  0  0
   -1.7557   -0.3535   -0.5933 C   0  0  0  0  0  0  0  0  0  0  0  0
   -0.8588    0.3553    0.2270 C   0  0  0  0  0  0  0  0  0  0  0  0
   -1.3755    1.0722    1.3159 C   0  0  0  0  0  0  0  0  0  0  0  0
   -2.7459    1.0808    1.5526 C   0  0  0  0  0  0  0  0  0  0  0  0
   -3.2081    1.7969    2.6240 O   0  0  0  0  0  0  0  0  0  0  0  0
    0.6372    0.3301   -0.0224 C   0  0  0  0  0  0  0  0  0  0  0  0
    0.8739    0.3579   -1.4363 O   0  0  0  0  0  0  0  0  0  0  0  0
    2.1363    0.3622   -1.9195 C   0  0  0  0  0  0  0  0  0  0  0  0
    2.3660    0.7300   -3.0662 O   0  0  0  0  0  0  0  0  0  0  0  0
    3.2464   -0.1205   -1.0538 C   0  0  0  0  0  0  0  0  0  0  0  0
    3.0250   -0.8217    0.1362 C   0  0  0  0  0  0  0  0  0  0  0  0
    1.3943   -1.1068    0.7689 S   0  0  0  0  0  0  0  0  0  0  0  0
    4.1179   -1.3103    0.8647 C   0  0  0  0  0  0  0  0  0  0  0  0
    5.4227   -1.0912    0.4197 C   0  0  0  0  0  0  0  0  0  0  0  0
    5.6460   -0.3876   -0.7599 C   0  0  0  0  0  0  0  0  0  0  0  0
    4.5629    0.0918   -1.4973 C   0  0  0  0  0  0  0  0  0  0  0  0
   -5.7227   -1.2791    0.2968 H   0  0  0  0  0  0  0  0  0  0  0  0
   -5.8827    0.1853   -0.7507 H   0  0  0  0  0  0  0  0  0  0  0  0
   -6.8957   -0.0146    0.6843 H   0  0  0  0  0  0  0  0  0  0  0  0
   -3.7782   -0.8993   -1.0138 H   0  0  0  0  0  0  0  0  0  0  0  0
   -1.3815   -0.9270   -1.4407 H   0  0  0  0  0  0  0  0  0  0  0  0
   -0.7219    1.6242    1.9865 H   0  0  0  0  0  0  0  0  0  0  0  0
   -4.1771    1.6705    2.6090 H   0  0  0  0  0  0  0  0  0  0  0  0
    1.0708    1.2475    0.3974 H   0  0  0  0  0  0  0  0  0  0  0  0
    3.9624   -1.8630    1.7897 H   0  0  0  0  0  0  0  0  0  0  0  0
    6.2639   -1.4730    0.9940 H   0  0  0  0  0  0  0  0  0  0  0  0
    6.6612   -0.2201   -1.1127 H   0  0  0  0  0  0  0  0  0  0  0  0
    4.7496    0.6244   -2.4290 H   0  0  0  0  0  0  0  0  0  0  0  0
  1  2  1  0
  2  3  1  0
  3  4  2  0
  4  5  1  0
  5  6  2  0
  6  7  1  0
  7  8  2  0
  8  9  1  0
  6 10  1  0
 10 11  1  0
 11 12  1  0
 12 13  2  0
 12 14  1  0
 14 15  2  0
 15 16  1  0
 15 17  1  0
 17 18  2  0
 18 19  1  0
 19 20  2  0
  8  3  1  0
 16 10  1  0
 20 14  1  0
  1 21  1  0
  1 22  1  0
  1 23  1  0
  4 24  1  0
  5 25  1  0
  7 26  1  0
  9 27  1  0
 10 28  1  0
 17 29  1  0
 18 30  1  0
 19 31  1  0
 20 32  1  0
M  END
