
     RDKit          3D

 36 38  0  0  0  0  0  0  0  0999 V2000
    5.8607    1.0290    0.8641 C   0  0  0  0  0  0  0  0  0  0  0  0
    5.2405   -0.0713    0.2081 O   0  0  0  0  0  0  0  0  0  0  0  0
    3.8774   -0.0157    0.0752 C   0  0  0  0  0  0  0  0  0  0  0  0
    3.0442    1.0019    0.5336 C   0  0  0  0  0  0  0  0  0  0  0  0
    1.6606    0.9224    0.3252 C   0  0  0  0  0  0  0  0  0  0  0  0
    1.0881   -0.1718   -0.3476 C   0  0  0  0  0  0  0  0  0  0  0  0
    1.9312   -1.1932   -0.8024 C   0  0  0  0  0  0  0  0  0  0  0  0
    3.3026   -1.1046   -0.5886 C   0  0  0  0  0  0  0  0  0  0  0  0
    4.0913   -2.1244   -1.0490 O   0  0  0  0  0  0  0  0  0  0  0  0
   -0.4073   -0.2710   -0.5641 C   0  0  0  0  0  0  0  0  0  0  0  0
   -0.9333    0.9550   -1.1354 N   0  0  0  0  0  0  0  0  0  0  0  0
   -2.2851    1.1673   -1.2455 C   0  0  0  0  0  0  0  0  0  0  0  0
   -2.7414    2.0209   -1.9999 O   0  0  0  0  0  0  0  0  0  0  0  0
   -3.1860    0.3236   -0.4155 C   0  0  0  0  0  0  0  0  0  0  0  0
   -2.6395   -0.5657    0.5298 C   0  0  0  0  0  0  0  0  0  0  0  0
   -1.1461   -0.6316    0.7340 C   0  0  0  0  0  0  0  0  0  0  0  0
   -3.4977   -1.3417    1.3212 C   0  0  0  0  0  0  0  0  0  0  0  0
   -4.8811   -1.2492    1.1575 C   0  0  0  0  0  0  0  0  0  0  0  0
   -5.4198   -0.3730    0.2151 C   0  0  0  0  0  0  0  0  0  0  0  0
   -4.5764    0.4143   -0.5641 C   0  0  0  0  0  0  0  0  0  0  0  0
   -5.1825    1.2588   -1.4556 O   0  0  0  0  0  0  0  0  0  0  0  0
    6.9385    0.8412    0.8837 H   0  0  0  0  0  0  0  0  0  0  0  0
    5.5184    1.1137    1.9008 H   0  0  0  0  0  0  0  0  0  0  0  0
    5.6948    1.9611    0.3140 H   0  0  0  0  0  0  0  0  0  0  0  0
    3.4313    1.8703    1.0561 H   0  0  0  0  0  0  0  0  0  0  0  0
    1.0267    1.7289    0.6922 H   0  0  0  0  0  0  0  0  0  0  0  0
    1.5344   -2.0607   -1.3237 H   0  0  0  0  0  0  0  0  0  0  0  0
    5.0021   -1.8670   -0.8056 H   0  0  0  0  0  0  0  0  0  0  0  0
   -0.6128   -1.0474   -1.3145 H   0  0  0  0  0  0  0  0  0  0  0  0
   -0.3806    1.4410   -1.8318 H   0  0  0  0  0  0  0  0  0  0  0  0
   -0.8890    0.0654    1.5421 H   0  0  0  0  0  0  0  0  0  0  0  0
   -0.8483   -1.6366    1.0582 H   0  0  0  0  0  0  0  0  0  0  0  0
   -3.0958   -2.0210    2.0703 H   0  0  0  0  0  0  0  0  0  0  0  0
   -5.5436   -1.8564    1.7699 H   0  0  0  0  0  0  0  0  0  0  0  0
   -6.4970   -0.2974    0.0914 H   0  0  0  0  0  0  0  0  0  0  0  0
   -4.4794    1.7851   -1.8993 H   0  0  0  0  0  0  0  0  0  0  0  0
  1  2  1  0
  2  3  1  0
  3  4  2  0
  4  5  1  0
  5  6  2  0
  6  7  1  0
  7  8  2  0
  8  9  1  0
  6 10  1  0
 10 11  1  0
 11 12  1  0
 12 13  2  0
 12 14  1  0
 14 15  2  0
 15 16  1  0
 15 17  1  0
 17 18  2  0
 18 19  1  0
 19 20  2  0
 20 21  1  0
  8  3  1  0
 16 10  1  0
 20 14  1  0
  1 22  1  0
  1 23  1  0
  1 24  1  0
  4 25  1  0
  5 26  1  0
  7 27  1  0
  9 28  1  0
 10 29  1  0
 11 30  1  0
 16 31  1  0
 16 32  1  0
 17 33  1  0
 18 34  1  0
 19 35  1  0
 21 36  1  0
M  END
