
     RDKit          3D

 35 37  0  0  0  0  0  0  0  0999 V2000
   -5.8434    0.1052    0.7529 C   0  0  0  0  0  0  0  0  0  0  0  0
   -5.0777   -0.3561   -0.3545 O   0  0  0  0  0  0  0  0  0  0  0  0
   -3.7158   -0.3587   -0.1984 C   0  0  0  0  0  0  0  0  0  0  0  0
   -3.0135    0.0641    0.9277 C   0  0  0  0  0  0  0  0  0  0  0  0
   -1.6135    0.0040    0.9439 C   0  0  0  0  0  0  0  0  0  0  0  0
   -0.8935   -0.4832   -0.1615 C   0  0  0  0  0  0  0  0  0  0  0  0
   -1.6057   -0.9025   -1.2919 C   0  0  0  0  0  0  0  0  0  0  0  0
   -2.9950   -0.8367   -1.2977 C   0  0  0  0  0  0  0  0  0  0  0  0
   -3.6531   -1.2562   -2.4224 O   0  0  0  0  0  0  0  0  0  0  0  0
    0.6201   -0.5369   -0.1560 C   0  0  0  0  0  0  0  0  0  0  0  0
    1.1150   -1.1726    1.0510 N   0  0  0  0  0  0  0  0  0  0  0  0
    2.4533   -1.1729    1.3638 C   0  0  0  0  0  0  0  0  0  0  0  0
    2.9102   -1.9612    2.1821 O   0  0  0  0  0  0  0  0  0  0  0  0
    3.3102   -0.1727    0.6674 C   0  0  0  0  0  0  0  0  0  0  0  0
    2.7337    0.8007   -0.1679 C   0  0  0  0  0  0  0  0  0  0  0  0
    1.2362    0.8599   -0.3342 C   0  0  0  0  0  0  0  0  0  0  0  0
    3.5592    1.7457   -0.7904 C   0  0  0  0  0  0  0  0  0  0  0  0
    4.9416    1.7045   -0.5992 C   0  0  0  0  0  0  0  0  0  0  0  0
    5.5094    0.7306    0.2223 C   0  0  0  0  0  0  0  0  0  0  0  0
    4.6954   -0.2064    0.8592 C   0  0  0  0  0  0  0  0  0  0  0  0
   -6.9006    0.0377    0.4788 H   0  0  0  0  0  0  0  0  0  0  0  0
   -5.6863   -0.5277    1.6326 H   0  0  0  0  0  0  0  0  0  0  0  0
   -5.6232    1.1546    0.9747 H   0  0  0  0  0  0  0  0  0  0  0  0
   -3.5168    0.4457    1.8097 H   0  0  0  0  0  0  0  0  0  0  0  0
   -1.0828    0.3399    1.8342 H   0  0  0  0  0  0  0  0  0  0  0  0
   -1.0922   -1.2821   -2.1716 H   0  0  0  0  0  0  0  0  0  0  0  0
   -4.6010   -1.1351   -2.2179 H   0  0  0  0  0  0  0  0  0  0  0  0
    0.9610   -1.1811   -0.9789 H   0  0  0  0  0  0  0  0  0  0  0  0
    0.6103   -1.9670    1.4251 H   0  0  0  0  0  0  0  0  0  0  0  0
    0.9765    1.2519   -1.3254 H   0  0  0  0  0  0  0  0  0  0  0  0
    0.8443    1.5630    0.4123 H   0  0  0  0  0  0  0  0  0  0  0  0
    3.1324    2.5193   -1.4252 H   0  0  0  0  0  0  0  0  0  0  0  0
    5.5787    2.4380   -1.0881 H   0  0  0  0  0  0  0  0  0  0  0  0
    6.5859    0.7039    0.3721 H   0  0  0  0  0  0  0  0  0  0  0  0
    5.1405   -0.9595    1.5061 H   0  0  0  0  0  0  0  0  0  0  0  0
  1  2  1  0
  2  3  1  0
  3  4  2  0
  4  5  1  0
  5  6  2  0
  6  7  1  0
  7  8  2  0
  8  9  1  0
  6 10  1  0
 10 11  1  0
 11 12  1  0
 12 13  2  0
 12 14  1  0
 14 15  2  0
 15 16  1  0
 15 17  1  0
 17 18  2  0
 18 19  1  0
 19 20  2  0
  8  3  1  0
 16 10  1  0
 20 14  1  0
  1 21  1  0
  1 22  1  0
  1 23  1  0
  4 24  1  0
  5 25  1  0
  7 26  1  0
  9 27  1  0
 10 28  1  0
 11 29  1  0
 16 30  1  0
 16 31  1  0
 17 32  1  0
 18 33  1  0
 19 34  1  0
 20 35  1  0
M  END
