
     RDKit          3D

 34 36  0  0  0  0  0  0  0  0999 V2000
    5.7123   -0.7312   -0.2110 C   0  0  0  0  0  0  0  0  0  0  0  0
    4.9436    0.2405   -0.9116 O   0  0  0  0  0  0  0  0  0  0  0  0
    3.5840    0.1776   -0.7488 C   0  0  0  0  0  0  0  0  0  0  0  0
    2.8890   -0.7341    0.0419 C   0  0  0  0  0  0  0  0  0  0  0  0
    1.4910   -0.6757    0.1107 C   0  0  0  0  0  0  0  0  0  0  0  0
    0.7638    0.2924   -0.6077 C   0  0  0  0  0  0  0  0  0  0  0  0
    1.4699    1.2059   -1.4005 C   0  0  0  0  0  0  0  0  0  0  0  0
    2.8579    1.1389   -1.4606 C   0  0  0  0  0  0  0  0  0  0  0  0
    3.5097    2.0509   -2.2465 O   0  0  0  0  0  0  0  0  0  0  0  0
   -0.7461    0.3493   -0.5335 C   0  0  0  0  0  0  0  0  0  0  0  0
   -1.3305   -0.8631   -1.0188 N   0  0  0  0  0  0  0  0  0  0  0  0
   -2.6738   -1.0891   -0.8765 C   0  0  0  0  0  0  0  0  0  0  0  0
   -3.2761   -1.8656   -1.6074 O   0  0  0  0  0  0  0  0  0  0  0  0
   -3.3420   -0.3545    0.2187 C   0  0  0  0  0  0  0  0  0  0  0  0
   -2.5497    0.4651    1.0361 C   0  0  0  0  0  0  0  0  0  0  0  0
   -1.1590    0.5499    0.8443 N   0  0  0  0  0  0  0  0  0  0  0  0
   -3.1500    1.0803    2.1386 C   0  0  0  0  0  0  0  0  0  0  0  0
   -4.5229    0.9415    2.3692 C   0  0  0  0  0  0  0  0  0  0  0  0
   -5.3053    0.1592    1.5188 C   0  0  0  0  0  0  0  0  0  0  0  0
   -4.7139   -0.5006    0.4434 C   0  0  0  0  0  0  0  0  0  0  0  0
    5.5896   -0.6250    0.8719 H   0  0  0  0  0  0  0  0  0  0  0  0
    6.7665   -0.5547   -0.4454 H   0  0  0  0  0  0  0  0  0  0  0  0
    5.4628   -1.7450   -0.5412 H   0  0  0  0  0  0  0  0  0  0  0  0
    3.3948   -1.5015    0.6182 H   0  0  0  0  0  0  0  0  0  0  0  0
    0.9564   -1.3921    0.7351 H   0  0  0  0  0  0  0  0  0  0  0  0
    0.9538    1.9707   -1.9750 H   0  0  0  0  0  0  0  0  0  0  0  0
    4.4574    1.8303   -2.1532 H   0  0  0  0  0  0  0  0  0  0  0  0
   -1.1222    1.1731   -1.1554 H   0  0  0  0  0  0  0  0  0  0  0  0
   -0.9311   -1.2826   -1.8455 H   0  0  0  0  0  0  0  0  0  0  0  0
   -0.7631    1.3974    1.2389 H   0  0  0  0  0  0  0  0  0  0  0  0
   -2.5555    1.6731    2.8288 H   0  0  0  0  0  0  0  0  0  0  0  0
   -4.9801    1.4357    3.2233 H   0  0  0  0  0  0  0  0  0  0  0  0
   -6.3704    0.0473    1.7060 H   0  0  0  0  0  0  0  0  0  0  0  0
   -5.3108   -1.1369   -0.2055 H   0  0  0  0  0  0  0  0  0  0  0  0
  1  2  1  0
  2  3  1  0
  3  4  2  0
  4  5  1  0
  5  6  2  0
  6  7  1  0
  7  8  2  0
  8  9  1  0
  6 10  1  0
 10 11  1  0
 11 12  1  0
 12 13  2  0
 12 14  1  0
 14 15  2  0
 15 16  1  0
 15 17  1  0
 17 18  2  0
 18 19  1  0
 19 20  2  0
  8  3  1  0
 16 10  1  0
 20 14  1  0
  1 21  1  0
  1 22  1  0
  1 23  1  0
  4 24  1  0
  5 25  1  0
  7 26  1  0
  9 27  1  0
 10 28  1  0
 11 29  1  0
 16 30  1  0
 17 31  1  0
 18 32  1  0
 19 33  1  0
 20 34  1  0
M  END
