
     RDKit          3D

 33 35  0  0  0  0  0  0  0  0999 V2000
   -5.4714   -1.1056   -1.2806 C   0  0  0  0  0  0  0  0  0  0  0  0
   -4.8931   -0.9038    0.0041 O   0  0  0  0  0  0  0  0  0  0  0  0
   -3.5543   -0.6102    0.0329 C   0  0  0  0  0  0  0  0  0  0  0  0
   -2.7129   -0.4860   -1.0701 C   0  0  0  0  0  0  0  0  0  0  0  0
   -1.3582   -0.1794   -0.8856 C   0  0  0  0  0  0  0  0  0  0  0  0
   -0.8215    0.0024    0.4020 C   0  0  0  0  0  0  0  0  0  0  0  0
   -1.6745   -0.1173    1.5064 C   0  0  0  0  0  0  0  0  0  0  0  0
   -3.0174   -0.4214    1.3111 C   0  0  0  0  0  0  0  0  0  0  0  0
   -3.8173   -0.5315    2.4166 O   0  0  0  0  0  0  0  0  0  0  0  0
    0.6366    0.3548    0.5957 C   0  0  0  0  0  0  0  0  0  0  0  0
    0.8864    1.7027    0.1671 N   0  0  0  0  0  0  0  0  0  0  0  0
    2.1759    2.1520    0.1056 C   0  0  0  0  0  0  0  0  0  0  0  0
    2.4567    3.3411    0.1525 O   0  0  0  0  0  0  0  0  0  0  0  0
    3.1959    1.0984   -0.0390 C   0  0  0  0  0  0  0  0  0  0  0  0
    2.7670   -0.2226   -0.1695 C   0  0  0  0  0  0  0  0  0  0  0  0
    1.4445   -0.5768   -0.1377 O   0  0  0  0  0  0  0  0  0  0  0  0
    3.6978   -1.2370   -0.3817 C   0  0  0  0  0  0  0  0  0  0  0  0
    5.0595   -0.9290   -0.4315 C   0  0  0  0  0  0  0  0  0  0  0  0
    5.4884    0.3926   -0.2827 C   0  0  0  0  0  0  0  0  0  0  0  0
    4.5556    1.4129   -0.0912 C   0  0  0  0  0  0  0  0  0  0  0  0
   -5.0146   -1.9611   -1.7890 H   0  0  0  0  0  0  0  0  0  0  0  0
   -5.4035   -0.1988   -1.8906 H   0  0  0  0  0  0  0  0  0  0  0  0
   -6.5324   -1.3315   -1.1369 H   0  0  0  0  0  0  0  0  0  0  0  0
   -3.0709   -0.6179   -2.0855 H   0  0  0  0  0  0  0  0  0  0  0  0
   -0.7122   -0.0810   -1.7576 H   0  0  0  0  0  0  0  0  0  0  0  0
   -1.3072    0.0224    2.5198 H   0  0  0  0  0  0  0  0  0  0  0  0
   -4.7032   -0.7469    2.0644 H   0  0  0  0  0  0  0  0  0  0  0  0
    0.9028    0.2755    1.6590 H   0  0  0  0  0  0  0  0  0  0  0  0
    0.2089    2.4147    0.4028 H   0  0  0  0  0  0  0  0  0  0  0  0
    3.3669   -2.2650   -0.5031 H   0  0  0  0  0  0  0  0  0  0  0  0
    5.7882   -1.7205   -0.5910 H   0  0  0  0  0  0  0  0  0  0  0  0
    6.5491    0.6287   -0.3273 H   0  0  0  0  0  0  0  0  0  0  0  0
    4.8845    2.4451    0.0045 H   0  0  0  0  0  0  0  0  0  0  0  0
  1  2  1  0
  2  3  1  0
  3  4  2  0
  4  5  1  0
  5  6  2  0
  6  7  1  0
  7  8  2  0
  8  9  1  0
  6 10  1  0
 10 11  1  0
 11 12  1  0
 12 13  2  0
 12 14  1  0
 14 15  2  0
 15 16  1  0
 15 17  1  0
 17 18  2  0
 18 19  1  0
 19 20  2  0
  8  3  1  0
 16 10  1  0
 20 14  1  0
  1 21  1  0
  1 22  1  0
  1 23  1  0
  4 24  1  0
  5 25  1  0
  7 26  1  0
  9 27  1  0
 10 28  1  0
 11 29  1  0
 17 30  1  0
 18 31  1  0
 19 32  1  0
 20 33  1  0
M  END
