
     RDKit          3D

 33 35  0  0  0  0  0  0  0  0999 V2000
    5.8232   -0.5535   -1.0018 C   0  0  0  0  0  0  0  0  0  0  0  0
    5.1245    0.3767   -0.1821 O   0  0  0  0  0  0  0  0  0  0  0  0
    3.7613    0.2425   -0.1295 C   0  0  0  0  0  0  0  0  0  0  0  0
    3.0006   -0.7185   -0.7909 C   0  0  0  0  0  0  0  0  0  0  0  0
    1.6073   -0.7338   -0.6412 C   0  0  0  0  0  0  0  0  0  0  0  0
    0.9497    0.2091    0.1724 C   0  0  0  0  0  0  0  0  0  0  0  0
    1.7228    1.1751    0.8307 C   0  0  0  0  0  0  0  0  0  0  0  0
    3.1051    1.1795    0.6755 C   0  0  0  0  0  0  0  0  0  0  0  0
    3.8220    2.1383    1.3395 O   0  0  0  0  0  0  0  0  0  0  0  0
   -0.5562    0.2003    0.3390 C   0  0  0  0  0  0  0  0  0  0  0  0
   -1.0248   -1.1069    0.7224 N   0  0  0  0  0  0  0  0  0  0  0  0
   -2.3449   -1.3934    0.9467 C   0  0  0  0  0  0  0  0  0  0  0  0
   -2.6496   -2.3421    1.6626 O   0  0  0  0  0  0  0  0  0  0  0  0
   -3.3847   -0.5515    0.3001 C   0  0  0  0  0  0  0  0  0  0  0  0
   -3.0644    0.4144   -0.6631 C   0  0  0  0  0  0  0  0  0  0  0  0
   -1.3917    0.7544   -1.1704 S   0  0  0  0  0  0  0  0  0  0  0  0
   -4.0964    1.1422   -1.2718 C   0  0  0  0  0  0  0  0  0  0  0  0
   -5.4287    0.9214   -0.9158 C   0  0  0  0  0  0  0  0  0  0  0  0
   -5.7437   -0.0343    0.0463 C   0  0  0  0  0  0  0  0  0  0  0  0
   -4.7259   -0.7724    0.6503 C   0  0  0  0  0  0  0  0  0  0  0  0
    5.6902   -1.5776   -0.6379 H   0  0  0  0  0  0  0  0  0  0  0  0
    6.8896   -0.3151   -0.9425 H   0  0  0  0  0  0  0  0  0  0  0  0
    5.5192   -0.4621   -2.0498 H   0  0  0  0  0  0  0  0  0  0  0  0
    3.4518   -1.4687   -1.4317 H   0  0  0  0  0  0  0  0  0  0  0  0
    1.0293   -1.4898   -1.1723 H   0  0  0  0  0  0  0  0  0  0  0  0
    1.2624    1.9288    1.4644 H   0  0  0  0  0  0  0  0  0  0  0  0
    4.7529    1.9701    1.0940 H   0  0  0  0  0  0  0  0  0  0  0  0
   -0.8389    0.8839    1.1495 H   0  0  0  0  0  0  0  0  0  0  0  0
   -0.4088   -1.6615    1.3028 H   0  0  0  0  0  0  0  0  0  0  0  0
   -3.8709    1.8907   -2.0291 H   0  0  0  0  0  0  0  0  0  0  0  0
   -6.2202    1.4940   -1.3938 H   0  0  0  0  0  0  0  0  0  0  0  0
   -6.7807   -0.2120    0.3214 H   0  0  0  0  0  0  0  0  0  0  0  0
   -4.9810   -1.5280    1.3915 H   0  0  0  0  0  0  0  0  0  0  0  0
  1  2  1  0
  2  3  1  0
  3  4  2  0
  4  5  1  0
  5  6  2  0
  6  7  1  0
  7  8  2  0
  8  9  1  0
  6 10  1  0
 10 11  1  0
 11 12  1  0
 12 13  2  0
 12 14  1  0
 14 15  2  0
 15 16  1  0
 15 17  1  0
 17 18  2  0
 18 19  1  0
 19 20  2  0
  8  3  1  0
 16 10  1  0
 20 14  1  0
  1 21  1  0
  1 22  1  0
  1 23  1  0
  4 24  1  0
  5 25  1  0
  7 26  1  0
  9 27  1  0
 10 28  1  0
 11 29  1  0
 17 30  1  0
 18 31  1  0
 19 32  1  0
 20 33  1  0
M  END
