
     RDKit          3D

 36 38  0  0  0  0  0  0  0  0999 V2000
    5.7452    2.0754   -0.7282 C   0  0  0  0  0  0  0  0  0  0  0  0
    5.2102    0.7615   -0.8398 O   0  0  0  0  0  0  0  0  0  0  0  0
    3.8476    0.6468   -0.7382 C   0  0  0  0  0  0  0  0  0  0  0  0
    2.9468    1.6851   -0.5130 C   0  0  0  0  0  0  0  0  0  0  0  0
    1.5739    1.4164   -0.4308 C   0  0  0  0  0  0  0  0  0  0  0  0
    1.0782    0.1102   -0.5785 C   0  0  0  0  0  0  0  0  0  0  0  0
    1.9903   -0.9305   -0.7986 C   0  0  0  0  0  0  0  0  0  0  0  0
    3.3508   -0.6536   -0.8762 C   0  0  0  0  0  0  0  0  0  0  0  0
    4.2094   -1.6983   -1.0923 O   0  0  0  0  0  0  0  0  0  0  0  0
   -0.4028   -0.1980   -0.4662 C   0  0  0  0  0  0  0  0  0  0  0  0
   -1.1701    0.9265   -0.9166 O   0  0  0  0  0  0  0  0  0  0  0  0
   -2.5564    0.5868   -1.0587 C   0  0  0  0  0  0  0  0  0  0  0  0
   -3.1318   -0.1171    0.1474 C   0  0  0  0  0  0  0  0  0  0  0  0
   -2.2814   -0.6742    1.1205 C   0  0  0  0  0  0  0  0  0  0  0  0
   -0.7879   -0.5085    0.9870 C   0  0  0  0  0  0  0  0  0  0  0  0
   -2.8243   -1.3322    2.2316 C   0  0  0  0  0  0  0  0  0  0  0  0
   -4.2062   -1.4648    2.3627 C   0  0  0  0  0  0  0  0  0  0  0  0
   -5.0546   -0.9388    1.3894 C   0  0  0  0  0  0  0  0  0  0  0  0
   -4.5143   -0.2732    0.2900 C   0  0  0  0  0  0  0  0  0  0  0  0
   -5.3352    0.2365   -0.6763 O   0  0  0  0  0  0  0  0  0  0  0  0
    5.5404    2.5020    0.2593 H   0  0  0  0  0  0  0  0  0  0  0  0
    6.8313    2.0039   -0.8408 H   0  0  0  0  0  0  0  0  0  0  0  0
    5.3698    2.7241   -1.5265 H   0  0  0  0  0  0  0  0  0  0  0  0
    3.2700    2.7137   -0.3962 H   0  0  0  0  0  0  0  0  0  0  0  0
    0.8833    2.2401   -0.2540 H   0  0  0  0  0  0  0  0  0  0  0  0
    1.6514   -1.9569   -0.9113 H   0  0  0  0  0  0  0  0  0  0  0  0
    5.0960   -1.2887   -1.1200 H   0  0  0  0  0  0  0  0  0  0  0  0
   -0.6285   -1.0496   -1.1238 H   0  0  0  0  0  0  0  0  0  0  0  0
   -3.0888    1.5274   -1.2342 H   0  0  0  0  0  0  0  0  0  0  0  0
   -2.6706   -0.0454   -1.9471 H   0  0  0  0  0  0  0  0  0  0  0  0
   -0.4890    0.3161    1.6473 H   0  0  0  0  0  0  0  0  0  0  0  0
   -0.2744   -1.4169    1.3249 H   0  0  0  0  0  0  0  0  0  0  0  0
   -2.1722   -1.7443    2.9987 H   0  0  0  0  0  0  0  0  0  0  0  0
   -4.6211   -1.9802    3.2251 H   0  0  0  0  0  0  0  0  0  0  0  0
   -6.1274   -1.0574    1.5046 H   0  0  0  0  0  0  0  0  0  0  0  0
   -6.2575    0.0690   -0.4213 H   0  0  0  0  0  0  0  0  0  0  0  0
  1  2  1  0
  2  3  1  0
  3  4  2  0
  4  5  1  0
  5  6  2  0
  6  7  1  0
  7  8  2  0
  8  9  1  0
  6 10  1  0
 10 11  1  0
 11 12  1  0
 12 13  1  0
 13 14  2  0
 14 15  1  0
 14 16  1  0
 16 17  2  0
 17 18  1  0
 18 19  2  0
 19 20  1  0
  8  3  1  0
 15 10  1  0
 19 13  1  0
  1 21  1  0
  1 22  1  0
  1 23  1  0
  4 24  1  0
  5 25  1  0
  7 26  1  0
  9 27  1  0
 10 28  1  0
 12 29  1  0
 12 30  1  0
 15 31  1  0
 15 32  1  0
 16 33  1  0
 17 34  1  0
 18 35  1  0
 20 36  1  0
M  END
