
     RDKit          3D

 34 36  0  0  0  0  0  0  0  0999 V2000
    5.7022    0.7142   -0.7643 C   0  0  0  0  0  0  0  0  0  0  0  0
    5.0063   -0.4100   -0.2379 O   0  0  0  0  0  0  0  0  0  0  0  0
    3.6375   -0.3345   -0.2325 C   0  0  0  0  0  0  0  0  0  0  0  0
    2.8676    0.7284   -0.6993 C   0  0  0  0  0  0  0  0  0  0  0  0
    1.4692    0.6650   -0.6303 C   0  0  0  0  0  0  0  0  0  0  0  0
    0.8185   -0.4572   -0.0892 C   0  0  0  0  0  0  0  0  0  0  0  0
    1.5983   -1.5254    0.3727 C   0  0  0  0  0  0  0  0  0  0  0  0
    2.9852   -1.4522    0.2984 C   0  0  0  0  0  0  0  0  0  0  0  0
    3.7107   -2.5166    0.7621 O   0  0  0  0  0  0  0  0  0  0  0  0
   -0.6954   -0.5462   -0.0325 C   0  0  0  0  0  0  0  0  0  0  0  0
   -1.2547   -0.9903   -1.3774 C   0  0  0  0  0  0  0  0  0  0  0  0
   -2.7499   -1.0776   -1.2590 C   0  0  0  0  0  0  0  0  0  0  0  0
   -3.4186   -1.8693   -1.9152 O   0  0  0  0  0  0  0  0  0  0  0  0
   -3.3936   -0.1061   -0.3532 C   0  0  0  0  0  0  0  0  0  0  0  0
   -2.5874    0.7633    0.3828 C   0  0  0  0  0  0  0  0  0  0  0  0
   -1.2187    0.7390    0.3449 O   0  0  0  0  0  0  0  0  0  0  0  0
   -3.1748    1.7371    1.1884 C   0  0  0  0  0  0  0  0  0  0  0  0
   -4.5659    1.8186    1.2812 C   0  0  0  0  0  0  0  0  0  0  0  0
   -5.3708    0.9335    0.5611 C   0  0  0  0  0  0  0  0  0  0  0  0
   -4.7863   -0.0298   -0.2620 C   0  0  0  0  0  0  0  0  0  0  0  0
    5.4598    0.8688   -1.8209 H   0  0  0  0  0  0  0  0  0  0  0  0
    6.7741    0.5049   -0.6960 H   0  0  0  0  0  0  0  0  0  0  0  0
    5.5005    1.6148   -0.1750 H   0  0  0  0  0  0  0  0  0  0  0  0
    3.3160    1.6208   -1.1224 H   0  0  0  0  0  0  0  0  0  0  0  0
    0.8861    1.5070   -1.0006 H   0  0  0  0  0  0  0  0  0  0  0  0
    1.1391   -2.4174    0.7910 H   0  0  0  0  0  0  0  0  0  0  0  0
    4.6439   -2.2635    0.6210 H   0  0  0  0  0  0  0  0  0  0  0  0
   -0.9718   -1.2581    0.7595 H   0  0  0  0  0  0  0  0  0  0  0  0
   -1.0236   -0.2778   -2.1778 H   0  0  0  0  0  0  0  0  0  0  0  0
   -0.8618   -1.9752   -1.6534 H   0  0  0  0  0  0  0  0  0  0  0  0
   -2.5510    2.4262    1.7522 H   0  0  0  0  0  0  0  0  0  0  0  0
   -5.0232    2.5737    1.9165 H   0  0  0  0  0  0  0  0  0  0  0  0
   -6.4539    1.0000    0.6343 H   0  0  0  0  0  0  0  0  0  0  0  0
   -5.4139   -0.7079   -0.8364 H   0  0  0  0  0  0  0  0  0  0  0  0
  1  2  1  0
  2  3  1  0
  3  4  2  0
  4  5  1  0
  5  6  2  0
  6  7  1  0
  7  8  2  0
  8  9  1  0
  6 10  1  0
 10 11  1  0
 11 12  1  0
 12 13  2  0
 12 14  1  0
 14 15  2  0
 15 16  1  0
 15 17  1  0
 17 18  2  0
 18 19  1  0
 19 20  2  0
  8  3  1  0
 16 10  1  0
 20 14  1  0
  1 21  1  0
  1 22  1  0
  1 23  1  0
  4 24  1  0
  5 25  1  0
  7 26  1  0
  9 27  1  0
 10 28  1  0
 11 29  1  0
 11 30  1  0
 17 31  1  0
 18 32  1  0
 19 33  1  0
 20 34  1  0
M  END
