
     RDKit          3D

158166  0  0  0  0  0  0  0  0999 V2000
   -3.3446   -4.8605    0.6979 O   0  0  0  0  0  0  0  0  0  0  0  0
   -3.7090   -4.7168   -0.6799 C   0  0  0  0  0  0  0  0  0  0  0  0
   -4.3281   -3.3272   -0.9023 C   0  0  0  0  0  0  0  0  0  0  0  0
   -3.3801   -2.3990   -0.3807 O   0  0  0  0  0  0  0  0  0  0  0  0
   -3.7414   -1.0258   -0.4888 C   0  0  0  0  0  0  0  0  0  0  0  0
   -3.3962   -0.4014    0.7512 O   0  0  0  0  0  0  0  0  0  0  0  0
   -2.0825    0.1420    0.7902 C   0  0  0  0  0  0  0  0  0  0  0  0
   -1.9577    1.4653   -0.0042 C   0  0  0  0  0  0  0  0  0  0  0  0
   -0.6282    1.6302   -0.7481 C   0  0  0  0  0  0  0  0  0  0  0  0
    0.6458    0.9947   -0.0952 C   0  0  0  0  0  0  0  0  0  0  0  0
    0.2895   -0.1240    0.9447 C   0  0  0  0  0  0  0  0  0  0  0  0
   -0.9677   -0.8689    0.4723 C   0  0  0  0  0  0  0  0  0  0  0  0
   -0.1953    0.4914    2.3060 C   0  0  0  0  0  0  0  0  0  0  0  0
   -1.6951    0.4749    2.2205 C   0  0  0  0  0  0  0  0  0  0  0  0
   -2.5119    0.6049    3.2728 C   0  0  0  0  0  0  0  0  0  0  0  0
    1.4529   -1.0585    1.2691 C   0  0  0  0  0  0  0  0  0  0  0  0
    2.2329   -1.5165    0.0563 C   0  0  0  0  0  0  0  0  0  0  0  0
    2.8912   -0.3106   -0.6381 C   0  0  0  0  0  0  0  0  0  0  0  0
    1.7806    0.6472   -1.2001 C   0  0  0  0  0  0  0  0  0  0  0  0
    2.4217    2.0256   -1.5581 C   0  0  0  0  0  0  0  0  0  0  0  0
    1.1745    0.0245   -2.4981 C   0  0  0  0  0  0  0  0  0  0  0  0
    2.0911   -0.8672   -3.3319 C   0  0  0  0  0  0  0  0  0  0  0  0
    3.5599   -0.5330   -3.1602 C   0  0  0  0  0  0  0  0  0  0  0  0
    4.0183   -0.7365   -1.6944 C   0  0  0  0  0  0  0  0  0  0  0  0
    4.4873   -2.2116   -1.5652 C   0  0  0  0  0  0  0  0  0  0  0  0
    5.2955    0.0832   -1.4336 C   0  0  0  0  0  0  0  0  0  0  0  0
    5.9264    0.7153   -2.2717 O   0  0  0  0  0  0  0  0  0  0  0  0
    5.6791   -0.0496   -0.1347 O   0  0  0  0  0  0  0  0  0  0  0  0
    6.8844    0.6236    0.2428 C   0  0  0  0  0  0  0  0  0  0  0  0
    6.7958    1.0395    1.6170 O   0  0  0  0  0  0  0  0  0  0  0  0
    6.6520   -0.0601    2.5351 C   0  0  0  0  0  0  0  0  0  0  0  0
    6.4936    0.5021    3.9474 C   0  0  0  0  0  0  0  0  0  0  0  0
    6.0283   -0.5189    4.8208 O   0  0  0  0  0  0  0  0  0  0  0  0
    7.8293   -1.0515    2.4351 C   0  0  0  0  0  0  0  0  0  0  0  0
    8.0063   -1.4928    0.9740 C   0  0  0  0  0  0  0  0  0  0  0  0
    8.1214   -0.2799    0.0249 C   0  0  0  0  0  0  0  0  0  0  0  0
    9.3206    0.4470    0.3466 O   0  0  0  0  0  0  0  0  0  0  0  0
    9.8252    1.2517   -0.7168 C   0  0  0  0  0  0  0  0  0  0  0  0
   10.9716    0.6197   -1.2904 O   0  0  0  0  0  0  0  0  0  0  0  0
   12.0422    0.4330   -0.3446 C   0  0  0  0  0  0  0  0  0  0  0  0
   13.2029   -0.2291   -1.1026 C   0  0  0  0  0  0  0  0  0  0  0  0
   12.7641   -1.4565   -1.6979 O   0  0  0  0  0  0  0  0  0  0  0  0
   12.4930    1.7577    0.2914 C   0  0  0  0  0  0  0  0  0  0  0  0
   11.3042    2.5456    0.8623 C   0  0  0  0  0  0  0  0  0  0  0  0
   10.1605    2.6473   -0.1535 C   0  0  0  0  0  0  0  0  0  0  0  0
   10.5103    3.5455   -1.2115 O   0  0  0  0  0  0  0  0  0  0  0  0
   10.8903    1.9459    2.1062 O   0  0  0  0  0  0  0  0  0  0  0  0
   13.4369    1.5146    1.3459 O   0  0  0  0  0  0  0  0  0  0  0  0
    9.1856   -2.3109    0.8673 O   0  0  0  0  0  0  0  0  0  0  0  0
    9.0548   -0.4669    2.9027 O   0  0  0  0  0  0  0  0  0  0  0  0
   -5.2223   -0.7370   -0.8588 C   0  0  0  0  0  0  0  0  0  0  0  0
   -6.1874   -1.7075   -0.1571 C   0  0  0  0  0  0  0  0  0  0  0  0
   -5.7015   -3.1723   -0.2164 C   0  0  0  0  0  0  0  0  0  0  0  0
   -5.7675   -3.7031    1.1155 O   0  0  0  0  0  0  0  0  0  0  0  0
   -7.4448   -1.6402   -0.8644 O   0  0  0  0  0  0  0  0  0  0  0  0
   -8.5745   -2.0722   -0.0891 C   0  0  0  0  0  0  0  0  0  0  0  0
   -8.8817   -1.0903    0.8860 O   0  0  0  0  0  0  0  0  0  0  0  0
   -9.9851   -1.3947    1.7532 C   0  0  0  0  0  0  0  0  0  0  0  0
  -10.5650   -0.0485    2.2336 C   0  0  0  0  0  0  0  0  0  0  0  0
  -11.0074    0.7542    1.1374 O   0  0  0  0  0  0  0  0  0  0  0  0
  -11.0204   -2.3395    1.1106 C   0  0  0  0  0  0  0  0  0  0  0  0
  -11.1212   -2.0648   -0.3838 C   0  0  0  0  0  0  0  0  0  0  0  0
   -9.7668   -2.2955   -1.0670 C   0  0  0  0  0  0  0  0  0  0  0  0
   -9.7226   -1.4406   -2.2286 O   0  0  0  0  0  0  0  0  0  0  0  0
  -12.1132   -2.9396   -0.9583 O   0  0  0  0  0  0  0  0  0  0  0  0
  -12.3051   -2.2657    1.7328 O   0  0  0  0  0  0  0  0  0  0  0  0
   -5.4777    0.6370   -0.5155 O   0  0  0  0  0  0  0  0  0  0  0  0
   -6.3578    1.3731   -1.3501 C   0  0  0  0  0  0  0  0  0  0  0  0
   -5.8194    2.6980   -1.5279 O   0  0  0  0  0  0  0  0  0  0  0  0
   -5.6847    3.4049   -0.2731 C   0  0  0  0  0  0  0  0  0  0  0  0
   -5.2115    4.8274   -0.5988 C   0  0  0  0  0  0  0  0  0  0  0  0
   -4.9006    5.5298    0.6007 O   0  0  0  0  0  0  0  0  0  0  0  0
   -7.0054    3.4342    0.5384 C   0  0  0  0  0  0  0  0  0  0  0  0
   -8.1395    2.8823   -0.3266 C   0  0  0  0  0  0  0  0  0  0  0  0
   -7.7932    1.4587   -0.7858 C   0  0  0  0  0  0  0  0  0  0  0  0
   -8.7671    1.0478   -1.7706 O   0  0  0  0  0  0  0  0  0  0  0  0
   -9.3928    2.9120    0.3737 O   0  0  0  0  0  0  0  0  0  0  0  0
   -6.8682    2.6168    1.7157 O   0  0  0  0  0  0  0  0  0  0  0  0
   -2.7758   -4.0858    0.9010 H   0  0  0  0  0  0  0  0  0  0  0  0
   -4.3999   -5.5171   -0.9495 H   0  0  0  0  0  0  0  0  0  0  0  0
   -2.7907   -4.8243   -1.2658 H   0  0  0  0  0  0  0  0  0  0  0  0
   -4.4248   -3.1550   -1.9836 H   0  0  0  0  0  0  0  0  0  0  0  0
   -3.1367   -0.5970   -1.2999 H   0  0  0  0  0  0  0  0  0  0  0  0
   -2.0951    2.3299    0.6621 H   0  0  0  0  0  0  0  0  0  0  0  0
   -2.7767    1.5626   -0.7279 H   0  0  0  0  0  0  0  0  0  0  0  0
   -0.4512    2.6987   -0.9360 H   0  0  0  0  0  0  0  0  0  0  0  0
   -0.8122    1.1983   -1.7356 H   0  0  0  0  0  0  0  0  0  0  0  0
    1.0907    1.7984    0.5127 H   0  0  0  0  0  0  0  0  0  0  0  0
   -1.1242   -1.8022    1.0335 H   0  0  0  0  0  0  0  0  0  0  0  0
   -0.9334   -1.1479   -0.5817 H   0  0  0  0  0  0  0  0  0  0  0  0
    0.1789    1.5079    2.4548 H   0  0  0  0  0  0  0  0  0  0  0  0
    0.1248   -0.1177    3.1598 H   0  0  0  0  0  0  0  0  0  0  0  0
   -3.5890    0.5233    3.1557 H   0  0  0  0  0  0  0  0  0  0  0  0
   -2.1270    0.7947    4.2709 H   0  0  0  0  0  0  0  0  0  0  0  0
    2.1492   -0.5537    1.9549 H   0  0  0  0  0  0  0  0  0  0  0  0
    1.0906   -1.9388    1.8110 H   0  0  0  0  0  0  0  0  0  0  0  0
    2.9893   -2.2129    0.4355 H   0  0  0  0  0  0  0  0  0  0  0  0
    1.5863   -2.0751   -0.6291 H   0  0  0  0  0  0  0  0  0  0  0  0
    3.3840    0.2586    0.1640 H   0  0  0  0  0  0  0  0  0  0  0  0
    3.2786    1.9577   -2.2239 H   0  0  0  0  0  0  0  0  0  0  0  0
    1.6948    2.6928   -2.0375 H   0  0  0  0  0  0  0  0  0  0  0  0
    2.7856    2.5321   -0.6559 H   0  0  0  0  0  0  0  0  0  0  0  0
    0.3019   -0.5930   -2.2535 H   0  0  0  0  0  0  0  0  0  0  0  0
    0.8029    0.8256   -3.1532 H   0  0  0  0  0  0  0  0  0  0  0  0
    1.8106   -0.7865   -4.3885 H   0  0  0  0  0  0  0  0  0  0  0  0
    1.9195   -1.9180   -3.0607 H   0  0  0  0  0  0  0  0  0  0  0  0
    4.1509   -1.1625   -3.8381 H   0  0  0  0  0  0  0  0  0  0  0  0
    3.7420    0.4836   -3.5195 H   0  0  0  0  0  0  0  0  0  0  0  0
    5.3125   -2.4233   -2.2583 H   0  0  0  0  0  0  0  0  0  0  0  0
    4.8686   -2.4397   -0.5642 H   0  0  0  0  0  0  0  0  0  0  0  0
    3.6816   -2.9156   -1.7979 H   0  0  0  0  0  0  0  0  0  0  0  0
    6.9960    1.5601   -0.3168 H   0  0  0  0  0  0  0  0  0  0  0  0
    5.7253   -0.5958    2.2858 H   0  0  0  0  0  0  0  0  0  0  0  0
    5.7627    1.3160    3.9500 H   0  0  0  0  0  0  0  0  0  0  0  0
    7.4323    0.9130    4.3295 H   0  0  0  0  0  0  0  0  0  0  0  0
    5.9553   -0.1128    5.7102 H   0  0  0  0  0  0  0  0  0  0  0  0
    7.6462   -1.9287    3.0658 H   0  0  0  0  0  0  0  0  0  0  0  0
    7.1509   -2.1090    0.6663 H   0  0  0  0  0  0  0  0  0  0  0  0
    8.1818   -0.6581   -1.0054 H   0  0  0  0  0  0  0  0  0  0  0  0
    9.0923    1.3592   -1.5283 H   0  0  0  0  0  0  0  0  0  0  0  0
   11.7097   -0.2783    0.4250 H   0  0  0  0  0  0  0  0  0  0  0  0
   14.0452   -0.4548   -0.4394 H   0  0  0  0  0  0  0  0  0  0  0  0
   13.5557    0.4179   -1.9166 H   0  0  0  0  0  0  0  0  0  0  0  0
   11.8745   -1.2589   -2.0580 H   0  0  0  0  0  0  0  0  0  0  0  0
   12.9911    2.3749   -0.4668 H   0  0  0  0  0  0  0  0  0  0  0  0
   11.6585    3.5476    1.1279 H   0  0  0  0  0  0  0  0  0  0  0  0
    9.2675    3.0433    0.3454 H   0  0  0  0  0  0  0  0  0  0  0  0
   10.5312    4.4415   -0.8323 H   0  0  0  0  0  0  0  0  0  0  0  0
   10.2032    1.2687    1.9171 H   0  0  0  0  0  0  0  0  0  0  0  0
   12.8978    1.3845    2.1544 H   0  0  0  0  0  0  0  0  0  0  0  0
    9.0247   -3.1317    1.3659 H   0  0  0  0  0  0  0  0  0  0  0  0
    9.7688   -0.9833    2.4669 H   0  0  0  0  0  0  0  0  0  0  0  0
   -5.3221   -0.8691   -1.9456 H   0  0  0  0  0  0  0  0  0  0  0  0
   -6.3387   -1.3681    0.8748 H   0  0  0  0  0  0  0  0  0  0  0  0
   -6.4085   -3.7862   -0.7914 H   0  0  0  0  0  0  0  0  0  0  0  0
   -4.9154   -4.1380    1.3315 H   0  0  0  0  0  0  0  0  0  0  0  0
   -8.3515   -3.0139    0.4296 H   0  0  0  0  0  0  0  0  0  0  0  0
   -9.5755   -1.8940    2.6454 H   0  0  0  0  0  0  0  0  0  0  0  0
  -11.3983   -0.1939    2.9256 H   0  0  0  0  0  0  0  0  0  0  0  0
   -9.7815    0.5164    2.7478 H   0  0  0  0  0  0  0  0  0  0  0  0
  -11.4317    1.5462    1.5294 H   0  0  0  0  0  0  0  0  0  0  0  0
  -10.6862   -3.3764    1.2496 H   0  0  0  0  0  0  0  0  0  0  0  0
  -11.4959   -1.0491   -0.5639 H   0  0  0  0  0  0  0  0  0  0  0  0
   -9.6941   -3.3112   -1.4717 H   0  0  0  0  0  0  0  0  0  0  0  0
   -9.3072   -0.6012   -1.9236 H   0  0  0  0  0  0  0  0  0  0  0  0
  -12.1791   -2.6582   -1.8913 H   0  0  0  0  0  0  0  0  0  0  0  0
  -12.8949   -2.7751    1.1405 H   0  0  0  0  0  0  0  0  0  0  0  0
   -6.3751    0.9355   -2.3525 H   0  0  0  0  0  0  0  0  0  0  0  0
   -4.8934    2.9237    0.3194 H   0  0  0  0  0  0  0  0  0  0  0  0
   -5.9809    5.3779   -1.1566 H   0  0  0  0  0  0  0  0  0  0  0  0
   -4.3137    4.7881   -1.2241 H   0  0  0  0  0  0  0  0  0  0  0  0
   -4.5497    6.3979    0.3346 H   0  0  0  0  0  0  0  0  0  0  0  0
   -7.2622    4.4352    0.9031 H   0  0  0  0  0  0  0  0  0  0  0  0
   -8.2834    3.5312   -1.2006 H   0  0  0  0  0  0  0  0  0  0  0  0
   -7.9002    0.7811    0.0563 H   0  0  0  0  0  0  0  0  0  0  0  0
   -8.7723    1.7261   -2.4728 H   0  0  0  0  0  0  0  0  0  0  0  0
   -9.8119    2.0285    0.2614 H   0  0  0  0  0  0  0  0  0  0  0  0
   -6.2319    3.0700    2.2979 H   0  0  0  0  0  0  0  0  0  0  0  0
  1  2  1  0
  2  3  1  0
  3  4  1  0
  4  5  1  0
  5  6  1  0
  6  7  1  0
  7  8  1  0
  8  9  1  0
  9 10  1  0
 10 11  1  0
 11 12  1  0
 11 13  1  0
 13 14  1  0
 14 15  2  0
 11 16  1  0
 16 17  1  0
 17 18  1  0
 18 19  1  0
 19 20  1  0
 19 21  1  0
 21 22  1  0
 22 23  1  0
 23 24  1  0
 24 25  1  0
 24 26  1  0
 26 27  2  0
 26 28  1  0
 28 29  1  0
 29 30  1  0
 30 31  1  0
 31 32  1  0
 32 33  1  0
 31 34  1  0
 34 35  1  0
 35 36  1  0
 36 37  1  0
 37 38  1  0
 38 39  1  0
 39 40  1  0
 40 41  1  0
 41 42  1  0
 40 43  1  0
 43 44  1  0
 44 45  1  0
 45 46  1  0
 44 47  1  0
 43 48  1  0
 35 49  1  0
 34 50  1  0
  5 51  1  0
 51 52  1  0
 52 53  1  0
 53 54  1  0
 52 55  1  0
 55 56  1  0
 56 57  1  0
 57 58  1  0
 58 59  1  0
 59 60  1  0
 58 61  1  0
 61 62  1  0
 62 63  1  0
 63 64  1  0
 62 65  1  0
 61 66  1  0
 51 67  1  0
 67 68  1  0
 68 69  1  0
 69 70  1  0
 70 71  1  0
 71 72  1  0
 70 73  1  0
 73 74  1  0
 74 75  1  0
 75 76  1  0
 74 77  1  0
 73 78  1  0
 53  3  1  0
 63 56  1  0
 75 68  1  0
 12  7  1  0
 24 18  1  0
 36 29  1  0
 45 38  1  0
 14  7  1  0
 19 10  1  0
  1 79  1  0
  2 80  1  0
  2 81  1  0
  3 82  1  0
  5 83  1  0
  8 84  1  0
  8 85  1  0
  9 86  1  0
  9 87  1  0
 10 88  1  0
 12 89  1  0
 12 90  1  0
 13 91  1  0
 13 92  1  0
 15 93  1  0
 15 94  1  0
 16 95  1  0
 16 96  1  0
 17 97  1  0
 17 98  1  0
 18 99  1  0
 20100  1  0
 20101  1  0
 20102  1  0
 21103  1  0
 21104  1  0
 22105  1  0
 22106  1  0
 23107  1  0
 23108  1  0
 25109  1  0
 25110  1  0
 25111  1  0
 29112  1  0
 31113  1  0
 32114  1  0
 32115  1  0
 33116  1  0
 34117  1  0
 35118  1  0
 36119  1  0
 38120  1  0
 40121  1  0
 41122  1  0
 41123  1  0
 42124  1  0
 43125  1  0
 44126  1  0
 45127  1  0
 46128  1  0
 47129  1  0
 48130  1  0
 49131  1  0
 50132  1  0
 51133  1  0
 52134  1  0
 53135  1  0
 54136  1  0
 56137  1  0
 58138  1  0
 59139  1  0
 59140  1  0
 60141  1  0
 61142  1  0
 62143  1  0
 63144  1  0
 64145  1  0
 65146  1  0
 66147  1  0
 68148  1  0
 70149  1  0
 71150  1  0
 71151  1  0
 72152  1  0
 73153  1  0
 74154  1  0
 75155  1  0
 76156  1  0
 77157  1  0
 78158  1  0
M  END
