
     RDKit          3D

 35 37  0  0  0  0  0  0  0  0999 V2000
   -5.8413   -0.7847   -0.6196 C   0  0  0  0  0  0  0  0  0  0  0  0
   -5.1546   -0.1312    0.4418 O   0  0  0  0  0  0  0  0  0  0  0  0
   -3.7881   -0.0787    0.3460 C   0  0  0  0  0  0  0  0  0  0  0  0
   -3.0132   -0.5905   -0.6922 C   0  0  0  0  0  0  0  0  0  0  0  0
   -1.6180   -0.4616   -0.6557 C   0  0  0  0  0  0  0  0  0  0  0  0
   -0.9751    0.1745    0.4201 C   0  0  0  0  0  0  0  0  0  0  0  0
   -1.7606    0.6927    1.4579 C   0  0  0  0  0  0  0  0  0  0  0  0
   -3.1443    0.5601    1.4106 C   0  0  0  0  0  0  0  0  0  0  0  0
   -3.8750    1.0792    2.4454 O   0  0  0  0  0  0  0  0  0  0  0  0
    0.5324    0.3423    0.4581 C   0  0  0  0  0  0  0  0  0  0  0  0
    0.9551    1.5522   -0.3640 C   0  0  0  0  0  0  0  0  0  0  0  0
    2.4492    1.6737   -0.2838 C   0  0  0  0  0  0  0  0  0  0  0  0
    3.0388    2.7492   -0.3617 O   0  0  0  0  0  0  0  0  0  0  0  0
    3.2160    0.4195   -0.1746 C   0  0  0  0  0  0  0  0  0  0  0  0
    2.5125   -0.7827   -0.0801 C   0  0  0  0  0  0  0  0  0  0  0  0
    1.1450   -0.8582   -0.0430 O   0  0  0  0  0  0  0  0  0  0  0  0
    3.2042   -1.9934   -0.0475 C   0  0  0  0  0  0  0  0  0  0  0  0
    4.6005   -2.0002   -0.0762 C   0  0  0  0  0  0  0  0  0  0  0  0
    5.3056   -0.7973   -0.1482 C   0  0  0  0  0  0  0  0  0  0  0  0
    4.6140    0.4100   -0.2023 C   0  0  0  0  0  0  0  0  0  0  0  0
    5.3670    1.5489   -0.2917 O   0  0  0  0  0  0  0  0  0  0  0  0
   -5.5504   -1.8381   -0.6885 H   0  0  0  0  0  0  0  0  0  0  0  0
   -6.9119   -0.7490   -0.3962 H   0  0  0  0  0  0  0  0  0  0  0  0
   -5.6821   -0.2660   -1.5707 H   0  0  0  0  0  0  0  0  0  0  0  0
   -3.4554   -1.0949   -1.5447 H   0  0  0  0  0  0  0  0  0  0  0  0
   -1.0315   -0.8692   -1.4779 H   0  0  0  0  0  0  0  0  0  0  0  0
   -1.3088    1.2002    2.3064 H   0  0  0  0  0  0  0  0  0  0  0  0
   -4.8047    0.8792    2.2205 H   0  0  0  0  0  0  0  0  0  0  0  0
    0.8428    0.4552    1.5075 H   0  0  0  0  0  0  0  0  0  0  0  0
    0.5019    2.4674    0.0326 H   0  0  0  0  0  0  0  0  0  0  0  0
    0.6842    1.4495   -1.4212 H   0  0  0  0  0  0  0  0  0  0  0  0
    2.6580   -2.9317    0.0110 H   0  0  0  0  0  0  0  0  0  0  0  0
    5.1408   -2.9433   -0.0420 H   0  0  0  0  0  0  0  0  0  0  0  0
    6.3925   -0.8006   -0.1712 H   0  0  0  0  0  0  0  0  0  0  0  0
    4.7543    2.3175   -0.3408 H   0  0  0  0  0  0  0  0  0  0  0  0
  1  2  1  0
  2  3  1  0
  3  4  2  0
  4  5  1  0
  5  6  2  0
  6  7  1  0
  7  8  2  0
  8  9  1  0
  6 10  1  0
 10 11  1  0
 11 12  1  0
 12 13  2  0
 12 14  1  0
 14 15  2  0
 15 16  1  0
 15 17  1  0
 17 18  2  0
 18 19  1  0
 19 20  2  0
 20 21  1  0
  8  3  1  0
 16 10  1  0
 20 14  1  0
  1 22  1  0
  1 23  1  0
  1 24  1  0
  4 25  1  0
  5 26  1  0
  7 27  1  0
  9 28  1  0
 10 29  1  0
 11 30  1  0
 11 31  1  0
 17 32  1  0
 18 33  1  0
 19 34  1  0
 21 35  1  0
M  END
