
     RDKit          3D

 38 40  0  0  0  0  0  0  0  0999 V2000
    6.6938    0.8791    0.2170 C   0  0  0  0  0  0  0  0  0  0  0  0
    5.2089    1.0770   -0.0290 C   0  0  0  0  0  0  0  0  0  0  0  0
    4.5304   -0.0988    0.4124 O   0  0  0  0  0  0  0  0  0  0  0  0
    3.1663   -0.1108    0.2789 C   0  0  0  0  0  0  0  0  0  0  0  0
    2.3797    0.9064   -0.2562 C   0  0  0  0  0  0  0  0  0  0  0  0
    0.9886    0.7521   -0.3301 C   0  0  0  0  0  0  0  0  0  0  0  0
    0.3614   -0.4169    0.1345 C   0  0  0  0  0  0  0  0  0  0  0  0
    1.1591   -1.4387    0.6657 C   0  0  0  0  0  0  0  0  0  0  0  0
    2.5385   -1.2751    0.7329 C   0  0  0  0  0  0  0  0  0  0  0  0
    3.2817   -2.2968    1.2602 O   0  0  0  0  0  0  0  0  0  0  0  0
   -1.1409   -0.6053    0.0363 C   0  0  0  0  0  0  0  0  0  0  0  0
   -1.5282   -1.0850   -1.3559 C   0  0  0  0  0  0  0  0  0  0  0  0
   -3.0185   -1.2617   -1.3924 C   0  0  0  0  0  0  0  0  0  0  0  0
   -3.5778   -2.0857   -2.1125 O   0  0  0  0  0  0  0  0  0  0  0  0
   -3.8201   -0.3424   -0.5644 C   0  0  0  0  0  0  0  0  0  0  0  0
   -3.1505    0.5751    0.2474 C   0  0  0  0  0  0  0  0  0  0  0  0
   -1.7856    0.6417    0.3474 O   0  0  0  0  0  0  0  0  0  0  0  0
   -3.8756    1.5073    0.9893 C   0  0  0  0  0  0  0  0  0  0  0  0
   -5.2714    1.5005    0.9449 C   0  0  0  0  0  0  0  0  0  0  0  0
   -5.9427    0.5690    0.1507 C   0  0  0  0  0  0  0  0  0  0  0  0
   -5.2178   -0.3476   -0.6064 C   0  0  0  0  0  0  0  0  0  0  0  0
   -5.9386   -1.2187   -1.3769 O   0  0  0  0  0  0  0  0  0  0  0  0
    7.0605    0.0006   -0.3242 H   0  0  0  0  0  0  0  0  0  0  0  0
    6.8883    0.7025    1.2801 H   0  0  0  0  0  0  0  0  0  0  0  0
    7.2627    1.7557   -0.1055 H   0  0  0  0  0  0  0  0  0  0  0  0
    4.8655    1.9501    0.5379 H   0  0  0  0  0  0  0  0  0  0  0  0
    5.0414    1.2328   -1.1009 H   0  0  0  0  0  0  0  0  0  0  0  0
    2.8091    1.8315   -0.6253 H   0  0  0  0  0  0  0  0  0  0  0  0
    0.3925    1.5601   -0.7521 H   0  0  0  0  0  0  0  0  0  0  0  0
    0.7200   -2.3640    1.0296 H   0  0  0  0  0  0  0  0  0  0  0  0
    4.2058   -1.9818    1.2176 H   0  0  0  0  0  0  0  0  0  0  0  0
   -1.4501   -1.3337    0.8006 H   0  0  0  0  0  0  0  0  0  0  0  0
   -1.2582   -0.3608   -2.1334 H   0  0  0  0  0  0  0  0  0  0  0  0
   -1.0505   -2.0447   -1.5817 H   0  0  0  0  0  0  0  0  0  0  0  0
   -3.3557    2.2325    1.6106 H   0  0  0  0  0  0  0  0  0  0  0  0
   -5.8378    2.2214    1.5299 H   0  0  0  0  0  0  0  0  0  0  0  0
   -7.0293    0.5626    0.1144 H   0  0  0  0  0  0  0  0  0  0  0  0
   -5.3047   -1.7897   -1.8674 H   0  0  0  0  0  0  0  0  0  0  0  0
  1  2  1  0
  2  3  1  0
  3  4  1  0
  4  5  2  0
  5  6  1  0
  6  7  2  0
  7  8  1  0
  8  9  2  0
  9 10  1  0
  7 11  1  0
 11 12  1  0
 12 13  1  0
 13 14  2  0
 13 15  1  0
 15 16  2  0
 16 17  1  0
 16 18  1  0
 18 19  2  0
 19 20  1  0
 20 21  2  0
 21 22  1  0
  9  4  1  0
 17 11  1  0
 21 15  1  0
  1 23  1  0
  1 24  1  0
  1 25  1  0
  2 26  1  0
  2 27  1  0
  5 28  1  0
  6 29  1  0
  8 30  1  0
 10 31  1  0
 11 32  1  0
 12 33  1  0
 12 34  1  0
 18 35  1  0
 19 36  1  0
 20 37  1  0
 22 38  1  0
M  END
