
     RDKit          3D

 41 43  0  0  0  0  0  0  0  0999 V2000
    7.1159    1.0948    0.1271 C   0  0  0  0  0  0  0  0  0  0  0  0
    6.1669    0.0347   -0.4023 C   0  0  0  0  0  0  0  0  0  0  0  0
    4.7098    0.3784   -0.1080 C   0  0  0  0  0  0  0  0  0  0  0  0
    3.8989   -0.6704   -0.6405 O   0  0  0  0  0  0  0  0  0  0  0  0
    2.5433   -0.5434   -0.4830 C   0  0  0  0  0  0  0  0  0  0  0  0
    1.8800    0.5014    0.1558 C   0  0  0  0  0  0  0  0  0  0  0  0
    0.4810    0.4959    0.2416 C   0  0  0  0  0  0  0  0  0  0  0  0
   -0.2769   -0.5492   -0.3141 C   0  0  0  0  0  0  0  0  0  0  0  0
    0.3968   -1.6003   -0.9497 C   0  0  0  0  0  0  0  0  0  0  0  0
    1.7852   -1.5848   -1.0278 C   0  0  0  0  0  0  0  0  0  0  0  0
    2.4050   -2.6301   -1.6584 O   0  0  0  0  0  0  0  0  0  0  0  0
   -1.7900   -0.5784   -0.2051 C   0  0  0  0  0  0  0  0  0  0  0  0
   -2.2165   -1.1373    1.1454 C   0  0  0  0  0  0  0  0  0  0  0  0
   -3.7168   -1.1507    1.1938 C   0  0  0  0  0  0  0  0  0  0  0  0
   -4.3586   -1.9700    1.8475 O   0  0  0  0  0  0  0  0  0  0  0  0
   -4.4177   -0.0767    0.4668 C   0  0  0  0  0  0  0  0  0  0  0  0
   -3.6566    0.8312   -0.2719 C   0  0  0  0  0  0  0  0  0  0  0  0
   -2.2938    0.7554   -0.3910 O   0  0  0  0  0  0  0  0  0  0  0  0
   -4.2792    1.9017   -0.9135 C   0  0  0  0  0  0  0  0  0  0  0  0
   -5.6666    2.0455   -0.8438 C   0  0  0  0  0  0  0  0  0  0  0  0
   -6.4310    1.1253   -0.1238 C   0  0  0  0  0  0  0  0  0  0  0  0
   -5.8067    0.0690    0.5343 C   0  0  0  0  0  0  0  0  0  0  0  0
   -6.6139   -0.7836    1.2369 O   0  0  0  0  0  0  0  0  0  0  0  0
    6.9129    2.0675   -0.3320 H   0  0  0  0  0  0  0  0  0  0  0  0
    7.0202    1.2001    1.2124 H   0  0  0  0  0  0  0  0  0  0  0  0
    8.1520    0.8228   -0.0977 H   0  0  0  0  0  0  0  0  0  0  0  0
    6.3055   -0.0825   -1.4838 H   0  0  0  0  0  0  0  0  0  0  0  0
    6.4114   -0.9384    0.0402 H   0  0  0  0  0  0  0  0  0  0  0  0
    4.4553    1.3312   -0.5877 H   0  0  0  0  0  0  0  0  0  0  0  0
    4.5640    0.4525    0.9764 H   0  0  0  0  0  0  0  0  0  0  0  0
    2.4133    1.3359    0.5984 H   0  0  0  0  0  0  0  0  0  0  0  0
   -0.0172    1.3229    0.7455 H   0  0  0  0  0  0  0  0  0  0  0  0
   -0.1461   -2.4343   -1.3869 H   0  0  0  0  0  0  0  0  0  0  0  0
    3.3589   -2.4243   -1.6050 H   0  0  0  0  0  0  0  0  0  0  0  0
   -2.1853   -1.1955   -1.0257 H   0  0  0  0  0  0  0  0  0  0  0  0
   -1.8605   -0.5215    1.9795 H   0  0  0  0  0  0  0  0  0  0  0  0
   -1.8472   -2.1606    1.2753 H   0  0  0  0  0  0  0  0  0  0  0  0
   -3.6869    2.6186   -1.4769 H   0  0  0  0  0  0  0  0  0  0  0  0
   -6.1538    2.8749   -1.3510 H   0  0  0  0  0  0  0  0  0  0  0  0
   -7.5112    1.2359   -0.0679 H   0  0  0  0  0  0  0  0  0  0  0  0
   -6.0436   -1.4636    1.6622 H   0  0  0  0  0  0  0  0  0  0  0  0
  1  2  1  0
  2  3  1  0
  3  4  1  0
  4  5  1  0
  5  6  2  0
  6  7  1  0
  7  8  2  0
  8  9  1  0
  9 10  2  0
 10 11  1  0
  8 12  1  0
 12 13  1  0
 13 14  1  0
 14 15  2  0
 14 16  1  0
 16 17  2  0
 17 18  1  0
 17 19  1  0
 19 20  2  0
 20 21  1  0
 21 22  2  0
 22 23  1  0
 10  5  1  0
 18 12  1  0
 22 16  1  0
  1 24  1  0
  1 25  1  0
  1 26  1  0
  2 27  1  0
  2 28  1  0
  3 29  1  0
  3 30  1  0
  6 31  1  0
  7 32  1  0
  9 33  1  0
 11 34  1  0
 12 35  1  0
 13 36  1  0
 13 37  1  0
 19 38  1  0
 20 39  1  0
 21 40  1  0
 23 41  1  0
M  END
