
     RDKit          3D

 35 37  0  0  0  0  0  0  0  0999 V2000
   -4.1554   -0.8241   -1.3508 C   0  0  0  0  0  0  0  0  0  0  0  0
   -4.4198   -0.2930   -0.0574 O   0  0  0  0  0  0  0  0  0  0  0  0
   -3.3301    0.0704    0.6917 C   0  0  0  0  0  0  0  0  0  0  0  0
   -1.9947    0.0081    0.2905 C   0  0  0  0  0  0  0  0  0  0  0  0
   -0.9628    0.4101    1.1634 C   0  0  0  0  0  0  0  0  0  0  0  0
   -1.2967    0.8881    2.4419 C   0  0  0  0  0  0  0  0  0  0  0  0
   -2.6289    0.9553    2.8467 C   0  0  0  0  0  0  0  0  0  0  0  0
   -3.6268    0.5478    1.9722 C   0  0  0  0  0  0  0  0  0  0  0  0
   -4.9263    0.6248    2.3948 O   0  0  0  0  0  0  0  0  0  0  0  0
    0.4931    0.3713    0.7315 C   0  0  0  0  0  0  0  0  0  0  0  0
    0.8420    1.6125   -0.0785 C   0  0  0  0  0  0  0  0  0  0  0  0
    2.2895    1.5252   -0.4665 C   0  0  0  0  0  0  0  0  0  0  0  0
    2.9988    2.5148   -0.6328 O   0  0  0  0  0  0  0  0  0  0  0  0
    2.8334    0.1779   -0.7154 C   0  0  0  0  0  0  0  0  0  0  0  0
    2.0018   -0.9234   -0.5031 C   0  0  0  0  0  0  0  0  0  0  0  0
    0.7173   -0.8230   -0.0368 O   0  0  0  0  0  0  0  0  0  0  0  0
    2.4593   -2.2080   -0.7960 C   0  0  0  0  0  0  0  0  0  0  0  0
    3.7597   -2.3940   -1.2701 C   0  0  0  0  0  0  0  0  0  0  0  0
    4.5996   -1.2953   -1.4616 C   0  0  0  0  0  0  0  0  0  0  0  0
    4.1352   -0.0112   -1.1892 C   0  0  0  0  0  0  0  0  0  0  0  0
    5.0043    1.0205   -1.4173 O   0  0  0  0  0  0  0  0  0  0  0  0
   -3.5593   -1.7405   -1.2877 H   0  0  0  0  0  0  0  0  0  0  0  0
   -5.1154   -1.0825   -1.8079 H   0  0  0  0  0  0  0  0  0  0  0  0
   -3.6716   -0.0791   -1.9911 H   0  0  0  0  0  0  0  0  0  0  0  0
   -1.7246   -0.3529   -0.6973 H   0  0  0  0  0  0  0  0  0  0  0  0
   -0.5221    1.2126    3.1338 H   0  0  0  0  0  0  0  0  0  0  0  0
   -2.8894    1.3225    3.8350 H   0  0  0  0  0  0  0  0  0  0  0  0
   -5.4544    0.2943    1.6422 H   0  0  0  0  0  0  0  0  0  0  0  0
    1.1203    0.3037    1.6327 H   0  0  0  0  0  0  0  0  0  0  0  0
    0.2523    1.6853   -0.9997 H   0  0  0  0  0  0  0  0  0  0  0  0
    0.6870    2.5194    0.5163 H   0  0  0  0  0  0  0  0  0  0  0  0
    1.8088   -3.0662   -0.6454 H   0  0  0  0  0  0  0  0  0  0  0  0
    4.1204   -3.3960   -1.4905 H   0  0  0  0  0  0  0  0  0  0  0  0
    5.6121   -1.4383   -1.8312 H   0  0  0  0  0  0  0  0  0  0  0  0
    4.5433    1.8629   -1.2024 H   0  0  0  0  0  0  0  0  0  0  0  0
  1  2  1  0
  2  3  1  0
  3  4  2  0
  4  5  1  0
  5  6  2  0
  6  7  1  0
  7  8  2  0
  8  9  1  0
  5 10  1  0
 10 11  1  0
 11 12  1  0
 12 13  2  0
 12 14  1  0
 14 15  2  0
 15 16  1  0
 15 17  1  0
 17 18  2  0
 18 19  1  0
 19 20  2  0
 20 21  1  0
  8  3  1  0
 16 10  1  0
 20 14  1  0
  1 22  1  0
  1 23  1  0
  1 24  1  0
  4 25  1  0
  6 26  1  0
  7 27  1  0
  9 28  1  0
 10 29  1  0
 11 30  1  0
 11 31  1  0
 17 32  1  0
 18 33  1  0
 19 34  1  0
 21 35  1  0
M  END
