
     RDKit          3D

 31 33  0  0  0  0  0  0  0  0999 V2000
   -5.8940    0.0436    0.0494 O   0  0  0  0  0  0  0  0  0  0  0  0
   -4.5348   -0.0283   -0.0279 C   0  0  0  0  0  0  0  0  0  0  0  0
   -3.7201    0.7902    0.7460 C   0  0  0  0  0  0  0  0  0  0  0  0
   -2.3318    0.6810    0.6337 C   0  0  0  0  0  0  0  0  0  0  0  0
   -1.7528   -0.2409   -0.2549 C   0  0  0  0  0  0  0  0  0  0  0  0
   -2.5976   -1.0601   -1.0211 C   0  0  0  0  0  0  0  0  0  0  0  0
   -3.9848   -0.9512   -0.9080 C   0  0  0  0  0  0  0  0  0  0  0  0
   -0.2464   -0.3901   -0.3690 C   0  0  0  0  0  0  0  0  0  0  0  0
    0.2867   -1.2814    0.7443 C   0  0  0  0  0  0  0  0  0  0  0  0
    1.7729   -1.4035    0.5729 C   0  0  0  0  0  0  0  0  0  0  0  0
    2.4075   -2.3979    0.9179 O   0  0  0  0  0  0  0  0  0  0  0  0
    2.4793   -0.2325    0.0228 C   0  0  0  0  0  0  0  0  0  0  0  0
    1.7239    0.8731   -0.3726 C   0  0  0  0  0  0  0  0  0  0  0  0
    0.3556    0.9145   -0.3152 O   0  0  0  0  0  0  0  0  0  0  0  0
    2.3630    2.0251   -0.8304 C   0  0  0  0  0  0  0  0  0  0  0  0
    3.7560    2.0596   -0.9243 C   0  0  0  0  0  0  0  0  0  0  0  0
    4.5112    0.9464   -0.5506 C   0  0  0  0  0  0  0  0  0  0  0  0
    3.8738   -0.1958   -0.0734 C   0  0  0  0  0  0  0  0  0  0  0  0
    4.6754   -1.2425    0.2927 O   0  0  0  0  0  0  0  0  0  0  0  0
   -6.1314    0.7331    0.6908 H   0  0  0  0  0  0  0  0  0  0  0  0
   -4.1412    1.5137    1.4368 H   0  0  0  0  0  0  0  0  0  0  0  0
   -1.7006    1.3255    1.2429 H   0  0  0  0  0  0  0  0  0  0  0  0
   -2.1845   -1.7904   -1.7136 H   0  0  0  0  0  0  0  0  0  0  0  0
   -4.6347   -1.5851   -1.5049 H   0  0  0  0  0  0  0  0  0  0  0  0
   -0.0143   -0.8173   -1.3559 H   0  0  0  0  0  0  0  0  0  0  0  0
    0.0979   -0.8604    1.7387 H   0  0  0  0  0  0  0  0  0  0  0  0
   -0.1611   -2.2798    0.6893 H   0  0  0  0  0  0  0  0  0  0  0  0
    1.7774    2.8929   -1.1243 H   0  0  0  0  0  0  0  0  0  0  0  0
    4.2547    2.9546   -1.2891 H   0  0  0  0  0  0  0  0  0  0  0  0
    5.5957    0.9717   -0.6225 H   0  0  0  0  0  0  0  0  0  0  0  0
    4.0992   -1.9675    0.6253 H   0  0  0  0  0  0  0  0  0  0  0  0
  1  2  1  0
  2  3  2  0
  3  4  1  0
  4  5  2  0
  5  6  1  0
  6  7  2  0
  5  8  1  0
  8  9  1  0
  9 10  1  0
 10 11  2  0
 10 12  1  0
 12 13  2  0
 13 14  1  0
 13 15  1  0
 15 16  2  0
 16 17  1  0
 17 18  2  0
 18 19  1  0
  7  2  1  0
 14  8  1  0
 18 12  1  0
  1 20  1  0
  3 21  1  0
  4 22  1  0
  6 23  1  0
  7 24  1  0
  8 25  1  0
  9 26  1  0
  9 27  1  0
 15 28  1  0
 16 29  1  0
 17 30  1  0
 19 31  1  0
M  END
