
     RDKit          3D

 36 37  0  0  0  0  0  0  0  0999 V2000
    6.0443    1.4736   -1.1471 C   0  0  0  0  0  0  0  0  0  0  0  0
    5.2518    1.3605    0.0293 O   0  0  0  0  0  0  0  0  0  0  0  0
    4.0832    0.6525   -0.0858 C   0  0  0  0  0  0  0  0  0  0  0  0
    3.5863    0.0635   -1.2470 C   0  0  0  0  0  0  0  0  0  0  0  0
    2.3700   -0.6317   -1.2160 C   0  0  0  0  0  0  0  0  0  0  0  0
    1.6393   -0.7512   -0.0249 C   0  0  0  0  0  0  0  0  0  0  0  0
    2.1381   -0.1564    1.1391 C   0  0  0  0  0  0  0  0  0  0  0  0
    3.3443    0.5337    1.0964 C   0  0  0  0  0  0  0  0  0  0  0  0
    3.8012    1.1054    2.2535 O   0  0  0  0  0  0  0  0  0  0  0  0
    0.3200   -1.4828   -0.0034 C   0  0  0  0  0  0  0  0  0  0  0  0
   -0.8551   -0.5142   -0.1380 C   0  0  0  0  0  0  0  0  0  0  0  0
   -2.1847   -1.2440   -0.1522 C   0  0  0  0  0  0  0  0  0  0  0  0
   -2.2640   -2.4719   -0.0905 O   0  0  0  0  0  0  0  0  0  0  0  0
   -3.4494   -0.4520   -0.2504 C   0  0  0  0  0  0  0  0  0  0  0  0
   -3.4316    0.9484   -0.3303 C   0  0  0  0  0  0  0  0  0  0  0  0
   -4.6283    1.6670   -0.4218 C   0  0  0  0  0  0  0  0  0  0  0  0
   -5.8501    0.9969   -0.4348 C   0  0  0  0  0  0  0  0  0  0  0  0
   -5.8805   -0.3937   -0.3566 C   0  0  0  0  0  0  0  0  0  0  0  0
   -4.6893   -1.1122   -0.2651 C   0  0  0  0  0  0  0  0  0  0  0  0
   -4.8182   -2.4745   -0.1932 O   0  0  0  0  0  0  0  0  0  0  0  0
    6.3685    0.4895   -1.5014 H   0  0  0  0  0  0  0  0  0  0  0  0
    5.5104    2.0214   -1.9307 H   0  0  0  0  0  0  0  0  0  0  0  0
    6.9405    2.0473   -0.8917 H   0  0  0  0  0  0  0  0  0  0  0  0
    4.1140    0.1236   -2.1927 H   0  0  0  0  0  0  0  0  0  0  0  0
    1.9973   -1.0844   -2.1331 H   0  0  0  0  0  0  0  0  0  0  0  0
    1.5978   -0.2270    2.0792 H   0  0  0  0  0  0  0  0  0  0  0  0
    4.6515    1.5193    2.0083 H   0  0  0  0  0  0  0  0  0  0  0  0
    0.2387   -2.0571    0.9287 H   0  0  0  0  0  0  0  0  0  0  0  0
    0.2975   -2.2253   -0.8116 H   0  0  0  0  0  0  0  0  0  0  0  0
   -0.7588    0.0512   -1.0724 H   0  0  0  0  0  0  0  0  0  0  0  0
   -0.8497    0.1859    0.7055 H   0  0  0  0  0  0  0  0  0  0  0  0
   -2.5027    1.5110   -0.3234 H   0  0  0  0  0  0  0  0  0  0  0  0
   -4.6071    2.7530   -0.4824 H   0  0  0  0  0  0  0  0  0  0  0  0
   -6.7799    1.5560   -0.5054 H   0  0  0  0  0  0  0  0  0  0  0  0
   -6.8306   -0.9217   -0.3661 H   0  0  0  0  0  0  0  0  0  0  0  0
   -3.9147   -2.8596   -0.1309 H   0  0  0  0  0  0  0  0  0  0  0  0
  1  2  1  0
  2  3  1  0
  3  4  2  0
  4  5  1  0
  5  6  2  0
  6  7  1  0
  7  8  2  0
  8  9  1  0
  6 10  1  0
 10 11  1  0
 11 12  1  0
 12 13  2  0
 12 14  1  0
 14 15  2  0
 15 16  1  0
 16 17  2  0
 17 18  1  0
 18 19  2  0
 19 20  1  0
  8  3  1  0
 19 14  1  0
  1 21  1  0
  1 22  1  0
  1 23  1  0
  4 24  1  0
  5 25  1  0
  7 26  1  0
  9 27  1  0
 10 28  1  0
 10 29  1  0
 11 30  1  0
 11 31  1  0
 15 32  1  0
 16 33  1  0
 17 34  1  0
 18 35  1  0
 20 36  1  0
M  END
