
     RDKit          3D

 39 40  0  0  0  0  0  0  0  0999 V2000
    6.9444    0.7150    0.8872 C   0  0  0  0  0  0  0  0  0  0  0  0
    5.5355    0.2767    1.2446 C   0  0  0  0  0  0  0  0  0  0  0  0
    4.8091    0.1000    0.0286 O   0  0  0  0  0  0  0  0  0  0  0  0
    3.5078   -0.3161    0.1424 C   0  0  0  0  0  0  0  0  0  0  0  0
    2.8172   -0.5527    1.3293 C   0  0  0  0  0  0  0  0  0  0  0  0
    1.4816   -0.9752    1.2916 C   0  0  0  0  0  0  0  0  0  0  0  0
    0.8227   -1.1711    0.0691 C   0  0  0  0  0  0  0  0  0  0  0  0
    1.5168   -0.9297   -1.1215 C   0  0  0  0  0  0  0  0  0  0  0  0
    2.8406   -0.5079   -1.0724 C   0  0  0  0  0  0  0  0  0  0  0  0
    3.4887   -0.2786   -2.2565 O   0  0  0  0  0  0  0  0  0  0  0  0
   -0.6217   -1.6052    0.0362 C   0  0  0  0  0  0  0  0  0  0  0  0
   -1.5585   -0.4082   -0.1271 C   0  0  0  0  0  0  0  0  0  0  0  0
   -3.0151   -0.8315   -0.1265 C   0  0  0  0  0  0  0  0  0  0  0  0
   -3.3610   -2.0049    0.0202 O   0  0  0  0  0  0  0  0  0  0  0  0
   -4.0758    0.2075   -0.3039 C   0  0  0  0  0  0  0  0  0  0  0  0
   -3.7525    1.5625   -0.4697 C   0  0  0  0  0  0  0  0  0  0  0  0
   -4.7630    2.5159   -0.6336 C   0  0  0  0  0  0  0  0  0  0  0  0
   -6.1013    2.1273   -0.6332 C   0  0  0  0  0  0  0  0  0  0  0  0
   -6.4347    0.7847   -0.4688 C   0  0  0  0  0  0  0  0  0  0  0  0
   -5.4296   -0.1674   -0.3055 C   0  0  0  0  0  0  0  0  0  0  0  0
   -5.8529   -1.4614   -0.1504 O   0  0  0  0  0  0  0  0  0  0  0  0
    7.4330   -0.0351    0.2564 H   0  0  0  0  0  0  0  0  0  0  0  0
    7.5462    0.8656    1.7878 H   0  0  0  0  0  0  0  0  0  0  0  0
    6.9242    1.6484    0.3149 H   0  0  0  0  0  0  0  0  0  0  0  0
    5.0645    1.0526    1.8590 H   0  0  0  0  0  0  0  0  0  0  0  0
    5.5844   -0.6672    1.7998 H   0  0  0  0  0  0  0  0  0  0  0  0
    3.2814   -0.4198    2.3004 H   0  0  0  0  0  0  0  0  0  0  0  0
    0.9580   -1.1542    2.2290 H   0  0  0  0  0  0  0  0  0  0  0  0
    1.0375   -1.0691   -2.0866 H   0  0  0  0  0  0  0  0  0  0  0  0
    4.3916   -0.0090   -1.9981 H   0  0  0  0  0  0  0  0  0  0  0  0
   -0.8618   -2.1556    0.9551 H   0  0  0  0  0  0  0  0  0  0  0  0
   -0.7671   -2.3205   -0.7839 H   0  0  0  0  0  0  0  0  0  0  0  0
   -1.4008    0.2959    0.6984 H   0  0  0  0  0  0  0  0  0  0  0  0
   -1.3421    0.0982   -1.0750 H   0  0  0  0  0  0  0  0  0  0  0  0
   -2.7234    1.9094   -0.4765 H   0  0  0  0  0  0  0  0  0  0  0  0
   -4.5050    3.5649   -0.7627 H   0  0  0  0  0  0  0  0  0  0  0  0
   -6.8862    2.8688   -0.7611 H   0  0  0  0  0  0  0  0  0  0  0  0
   -7.4769    0.4759   -0.4678 H   0  0  0  0  0  0  0  0  0  0  0  0
   -5.0555   -2.0289   -0.0477 H   0  0  0  0  0  0  0  0  0  0  0  0
  1  2  1  0
  2  3  1  0
  3  4  1  0
  4  5  2  0
  5  6  1  0
  6  7  2  0
  7  8  1  0
  8  9  2  0
  9 10  1  0
  7 11  1  0
 11 12  1  0
 12 13  1  0
 13 14  2  0
 13 15  1  0
 15 16  2  0
 16 17  1  0
 17 18  2  0
 18 19  1  0
 19 20  2  0
 20 21  1  0
  9  4  1  0
 20 15  1  0
  1 22  1  0
  1 23  1  0
  1 24  1  0
  2 25  1  0
  2 26  1  0
  5 27  1  0
  6 28  1  0
  8 29  1  0
 10 30  1  0
 11 31  1  0
 11 32  1  0
 12 33  1  0
 12 34  1  0
 16 35  1  0
 17 36  1  0
 18 37  1  0
 19 38  1  0
 21 39  1  0
M  END
