
     RDKit          3D

 42 43  0  0  0  0  0  0  0  0999 V2000
    5.4923   -1.4703    3.0096 C   0  0  0  0  0  0  0  0  0  0  0  0
    5.0994   -0.1137    2.4416 C   0  0  0  0  0  0  0  0  0  0  0  0
    3.6172   -0.0417    2.0798 C   0  0  0  0  0  0  0  0  0  0  0  0
    3.3514   -0.9845    1.0410 O   0  0  0  0  0  0  0  0  0  0  0  0
    2.0632   -1.0452    0.5764 C   0  0  0  0  0  0  0  0  0  0  0  0
    0.9837   -0.2928    1.0339 C   0  0  0  0  0  0  0  0  0  0  0  0
   -0.2833   -0.4623    0.4603 C   0  0  0  0  0  0  0  0  0  0  0  0
   -0.4866   -1.3834   -0.5784 C   0  0  0  0  0  0  0  0  0  0  0  0
    0.5997   -2.1363   -1.0374 C   0  0  0  0  0  0  0  0  0  0  0  0
    1.8514   -1.9629   -0.4579 C   0  0  0  0  0  0  0  0  0  0  0  0
    2.8913   -2.7189   -0.9294 O   0  0  0  0  0  0  0  0  0  0  0  0
   -1.8461   -1.5433   -1.2127 C   0  0  0  0  0  0  0  0  0  0  0  0
   -2.0115   -0.7224   -2.4909 C   0  0  0  0  0  0  0  0  0  0  0  0
   -1.9871    0.7741   -2.2450 C   0  0  0  0  0  0  0  0  0  0  0  0
   -1.0562    1.4745   -2.6492 O   0  0  0  0  0  0  0  0  0  0  0  0
   -3.0880    1.4371   -1.4861 C   0  0  0  0  0  0  0  0  0  0  0  0
   -4.3385    0.8274   -1.3163 C   0  0  0  0  0  0  0  0  0  0  0  0
   -5.3414    1.4688   -0.5822 C   0  0  0  0  0  0  0  0  0  0  0  0
   -5.1057    2.7209   -0.0166 C   0  0  0  0  0  0  0  0  0  0  0  0
   -3.8693    3.3402   -0.1883 C   0  0  0  0  0  0  0  0  0  0  0  0
   -2.8706    2.7052   -0.9235 C   0  0  0  0  0  0  0  0  0  0  0  0
   -1.6886    3.3870   -1.0474 O   0  0  0  0  0  0  0  0  0  0  0  0
    6.5525   -1.4722    3.2818 H   0  0  0  0  0  0  0  0  0  0  0  0
    4.9108   -1.7017    3.9077 H   0  0  0  0  0  0  0  0  0  0  0  0
    5.3311   -2.2700    2.2798 H   0  0  0  0  0  0  0  0  0  0  0  0
    5.3321    0.6660    3.1752 H   0  0  0  0  0  0  0  0  0  0  0  0
    5.7048    0.0767    1.5477 H   0  0  0  0  0  0  0  0  0  0  0  0
    3.3924    0.9727    1.7289 H   0  0  0  0  0  0  0  0  0  0  0  0
    3.0130   -0.2703    2.9661 H   0  0  0  0  0  0  0  0  0  0  0  0
    1.0875    0.4368    1.8297 H   0  0  0  0  0  0  0  0  0  0  0  0
   -1.1098    0.1408    0.8319 H   0  0  0  0  0  0  0  0  0  0  0  0
    0.4831   -2.8546   -1.8441 H   0  0  0  0  0  0  0  0  0  0  0  0
    3.6638   -2.4314   -0.4047 H   0  0  0  0  0  0  0  0  0  0  0  0
   -2.6190   -1.2940   -0.4766 H   0  0  0  0  0  0  0  0  0  0  0  0
   -1.9988   -2.6045   -1.4484 H   0  0  0  0  0  0  0  0  0  0  0  0
   -2.9417   -0.9852   -3.0054 H   0  0  0  0  0  0  0  0  0  0  0  0
   -1.2058   -0.9554   -3.1990 H   0  0  0  0  0  0  0  0  0  0  0  0
   -4.5658   -0.1417   -1.7491 H   0  0  0  0  0  0  0  0  0  0  0  0
   -6.3109    0.9922   -0.4534 H   0  0  0  0  0  0  0  0  0  0  0  0
   -5.8863    3.2191    0.5533 H   0  0  0  0  0  0  0  0  0  0  0  0
   -3.6825    4.3197    0.2445 H   0  0  0  0  0  0  0  0  0  0  0  0
   -1.1271    2.8996   -1.6936 H   0  0  0  0  0  0  0  0  0  0  0  0
  1  2  1  0
  2  3  1  0
  3  4  1  0
  4  5  1  0
  5  6  2  0
  6  7  1  0
  7  8  2  0
  8  9  1  0
  9 10  2  0
 10 11  1  0
  8 12  1  0
 12 13  1  0
 13 14  1  0
 14 15  2  0
 14 16  1  0
 16 17  2  0
 17 18  1  0
 18 19  2  0
 19 20  1  0
 20 21  2  0
 21 22  1  0
 10  5  1  0
 21 16  1  0
  1 23  1  0
  1 24  1  0
  1 25  1  0
  2 26  1  0
  2 27  1  0
  3 28  1  0
  3 29  1  0
  6 30  1  0
  7 31  1  0
  9 32  1  0
 11 33  1  0
 12 34  1  0
 12 35  1  0
 13 36  1  0
 13 37  1  0
 17 38  1  0
 18 39  1  0
 19 40  1  0
 20 41  1  0
 22 42  1  0
M  END
