
     RDKit          3D

 37 38  0  0  0  0  0  0  0  0999 V2000
    6.2138    0.4282   -1.4203 C   0  0  0  0  0  0  0  0  0  0  0  0
    5.4127    0.8984   -0.3424 O   0  0  0  0  0  0  0  0  0  0  0  0
    4.1965    0.2879   -0.1730 C   0  0  0  0  0  0  0  0  0  0  0  0
    3.6630   -0.7234   -0.9698 C   0  0  0  0  0  0  0  0  0  0  0  0
    2.4002   -1.2549   -0.6764 C   0  0  0  0  0  0  0  0  0  0  0  0
    1.6587   -0.7869    0.4183 C   0  0  0  0  0  0  0  0  0  0  0  0
    2.1934    0.2321    1.2138 C   0  0  0  0  0  0  0  0  0  0  0  0
    3.4464    0.7540    0.9125 C   0  0  0  0  0  0  0  0  0  0  0  0
    3.9397    1.7506    1.7116 O   0  0  0  0  0  0  0  0  0  0  0  0
    0.2913   -1.3511    0.7157 C   0  0  0  0  0  0  0  0  0  0  0  0
   -0.8139   -0.5180    0.0645 C   0  0  0  0  0  0  0  0  0  0  0  0
   -2.1868   -1.0769    0.3828 C   0  0  0  0  0  0  0  0  0  0  0  0
   -2.3362   -2.2231    0.8169 O   0  0  0  0  0  0  0  0  0  0  0  0
   -3.4094   -0.2322    0.2058 C   0  0  0  0  0  0  0  0  0  0  0  0
   -3.4513    0.9150   -0.6011 C   0  0  0  0  0  0  0  0  0  0  0  0
   -2.3640    1.3042   -1.3326 O   0  0  0  0  0  0  0  0  0  0  0  0
   -4.6206    1.6798   -0.7002 C   0  0  0  0  0  0  0  0  0  0  0  0
   -5.7661    1.3030   -0.0009 C   0  0  0  0  0  0  0  0  0  0  0  0
   -5.7494    0.1579    0.7891 C   0  0  0  0  0  0  0  0  0  0  0  0
   -4.5856   -0.6047    0.8845 C   0  0  0  0  0  0  0  0  0  0  0  0
   -4.6786   -1.7205    1.6776 O   0  0  0  0  0  0  0  0  0  0  0  0
    7.1479    0.9981   -1.4150 H   0  0  0  0  0  0  0  0  0  0  0  0
    5.7222    0.6041   -2.3827 H   0  0  0  0  0  0  0  0  0  0  0  0
    6.4682   -0.6291   -1.2919 H   0  0  0  0  0  0  0  0  0  0  0  0
    4.1962   -1.1226   -1.8257 H   0  0  0  0  0  0  0  0  0  0  0  0
    1.9972   -2.0423   -1.3107 H   0  0  0  0  0  0  0  0  0  0  0  0
    1.6438    0.6224    2.0659 H   0  0  0  0  0  0  0  0  0  0  0  0
    4.8170    1.9587    1.3357 H   0  0  0  0  0  0  0  0  0  0  0  0
    0.2428   -2.3913    0.3680 H   0  0  0  0  0  0  0  0  0  0  0  0
    0.1445   -1.3967    1.8028 H   0  0  0  0  0  0  0  0  0  0  0  0
   -0.7505    0.5104    0.4376 H   0  0  0  0  0  0  0  0  0  0  0  0
   -0.6807   -0.5215   -1.0229 H   0  0  0  0  0  0  0  0  0  0  0  0
   -2.5736    2.1152   -1.8270 H   0  0  0  0  0  0  0  0  0  0  0  0
   -4.6598    2.5703   -1.3219 H   0  0  0  0  0  0  0  0  0  0  0  0
   -6.6746    1.8954   -0.0768 H   0  0  0  0  0  0  0  0  0  0  0  0
   -6.6416   -0.1482    1.3299 H   0  0  0  0  0  0  0  0  0  0  0  0
   -3.8525   -2.2427    1.5581 H   0  0  0  0  0  0  0  0  0  0  0  0
  1  2  1  0
  2  3  1  0
  3  4  2  0
  4  5  1  0
  5  6  2  0
  6  7  1  0
  7  8  2  0
  8  9  1  0
  6 10  1  0
 10 11  1  0
 11 12  1  0
 12 13  2  0
 12 14  1  0
 14 15  2  0
 15 16  1  0
 15 17  1  0
 17 18  2  0
 18 19  1  0
 19 20  2  0
 20 21  1  0
  8  3  1  0
 20 14  1  0
  1 22  1  0
  1 23  1  0
  1 24  1  0
  4 25  1  0
  5 26  1  0
  7 27  1  0
  9 28  1  0
 10 29  1  0
 10 30  1  0
 11 31  1  0
 11 32  1  0
 16 33  1  0
 17 34  1  0
 18 35  1  0
 19 36  1  0
 21 37  1  0
M  END
