
     RDKit          3D

 40 41  0  0  0  0  0  0  0  0999 V2000
   -7.0662   -0.9059    0.3359 C   0  0  0  0  0  0  0  0  0  0  0  0
   -5.7124   -0.4736    0.8700 C   0  0  0  0  0  0  0  0  0  0  0  0
   -4.8693   -0.1928   -0.2469 O   0  0  0  0  0  0  0  0  0  0  0  0
   -3.5964    0.2329    0.0334 C   0  0  0  0  0  0  0  0  0  0  0  0
   -3.0388    0.3903    1.3007 C   0  0  0  0  0  0  0  0  0  0  0  0
   -1.7169    0.8350    1.4348 C   0  0  0  0  0  0  0  0  0  0  0  0
   -0.9392    1.1326    0.3062 C   0  0  0  0  0  0  0  0  0  0  0  0
   -1.4990    0.9687   -0.9655 C   0  0  0  0  0  0  0  0  0  0  0  0
   -2.8108    0.5248   -1.0872 C   0  0  0  0  0  0  0  0  0  0  0  0
   -3.3277    0.3751   -2.3464 O   0  0  0  0  0  0  0  0  0  0  0  0
    0.4898    1.5922    0.4590 C   0  0  0  0  0  0  0  0  0  0  0  0
    1.4682    0.4189    0.3841 C   0  0  0  0  0  0  0  0  0  0  0  0
    2.9038    0.8878    0.5177 C   0  0  0  0  0  0  0  0  0  0  0  0
    3.1826    2.0062    0.9606 O   0  0  0  0  0  0  0  0  0  0  0  0
    4.0329    0.0077    0.0821 C   0  0  0  0  0  0  0  0  0  0  0  0
    5.2838    0.6005   -0.1764 C   0  0  0  0  0  0  0  0  0  0  0  0
    5.5305    1.9413   -0.0207 O   0  0  0  0  0  0  0  0  0  0  0  0
    6.3677   -0.1581   -0.6178 C   0  0  0  0  0  0  0  0  0  0  0  0
    6.2276   -1.5308   -0.7955 C   0  0  0  0  0  0  0  0  0  0  0  0
    5.0054   -2.1440   -0.5246 C   0  0  0  0  0  0  0  0  0  0  0  0
    3.9165   -1.3807   -0.0846 C   0  0  0  0  0  0  0  0  0  0  0  0
    2.7487   -2.0311    0.2019 O   0  0  0  0  0  0  0  0  0  0  0  0
   -7.5051   -0.1178   -0.2850 H   0  0  0  0  0  0  0  0  0  0  0  0
   -6.9649   -1.7924   -0.2990 H   0  0  0  0  0  0  0  0  0  0  0  0
   -7.7537   -1.1345    1.1550 H   0  0  0  0  0  0  0  0  0  0  0  0
   -5.2889   -1.2866    1.4709 H   0  0  0  0  0  0  0  0  0  0  0  0
   -5.8409    0.4242    1.4857 H   0  0  0  0  0  0  0  0  0  0  0  0
   -3.5975    0.1771    2.2054 H   0  0  0  0  0  0  0  0  0  0  0  0
   -1.2959    0.9498    2.4320 H   0  0  0  0  0  0  0  0  0  0  0  0
   -0.9233    1.1843   -1.8613 H   0  0  0  0  0  0  0  0  0  0  0  0
   -4.2449    0.0709   -2.2035 H   0  0  0  0  0  0  0  0  0  0  0  0
    0.7200    2.3314   -0.3194 H   0  0  0  0  0  0  0  0  0  0  0  0
    0.6013    2.1243    1.4127 H   0  0  0  0  0  0  0  0  0  0  0  0
    1.2557   -0.2858    1.1956 H   0  0  0  0  0  0  0  0  0  0  0  0
    1.3446   -0.0859   -0.5806 H   0  0  0  0  0  0  0  0  0  0  0  0
    4.7456    2.3413    0.4190 H   0  0  0  0  0  0  0  0  0  0  0  0
    7.3204    0.3263   -0.8174 H   0  0  0  0  0  0  0  0  0  0  0  0
    7.0739   -2.1218   -1.1370 H   0  0  0  0  0  0  0  0  0  0  0  0
    4.9220   -3.2194   -0.6574 H   0  0  0  0  0  0  0  0  0  0  0  0
    2.8509   -2.9824    0.0271 H   0  0  0  0  0  0  0  0  0  0  0  0
  1  2  1  0
  2  3  1  0
  3  4  1  0
  4  5  2  0
  5  6  1  0
  6  7  2  0
  7  8  1  0
  8  9  2  0
  9 10  1  0
  7 11  1  0
 11 12  1  0
 12 13  1  0
 13 14  2  0
 13 15  1  0
 15 16  2  0
 16 17  1  0
 16 18  1  0
 18 19  2  0
 19 20  1  0
 20 21  2  0
 21 22  1  0
  9  4  1  0
 21 15  1  0
  1 23  1  0
  1 24  1  0
  1 25  1  0
  2 26  1  0
  2 27  1  0
  5 28  1  0
  6 29  1  0
  8 30  1  0
 10 31  1  0
 11 32  1  0
 11 33  1  0
 12 34  1  0
 12 35  1  0
 17 36  1  0
 18 37  1  0
 19 38  1  0
 20 39  1  0
 22 40  1  0
M  END
