
     RDKit          3D

137144  0  0  0  0  0  0  0  0999 V2000
  -10.3491    0.8544    0.8361 O   0  0  0  0  0  0  0  0  0  0  0  0
   -9.3099    1.6690    1.3842 C   0  0  0  0  0  0  0  0  0  0  0  0
   -8.0065    1.5725    0.5692 C   0  0  0  0  0  0  0  0  0  0  0  0
   -7.4968    0.2320    0.6650 O   0  0  0  0  0  0  0  0  0  0  0  0
   -6.2412    0.0321   -0.0129 C   0  0  0  0  0  0  0  0  0  0  0  0
   -5.2359    0.7820    0.6854 O   0  0  0  0  0  0  0  0  0  0  0  0
   -3.9457    0.4856    0.3854 C   0  0  0  0  0  0  0  0  0  0  0  0
   -3.6136   -0.1584   -0.5992 O   0  0  0  0  0  0  0  0  0  0  0  0
   -2.9926    0.9649    1.5120 C   0  0  0  0  0  0  0  0  0  0  0  0
   -3.3196    0.0396    2.7099 C   0  0  0  0  0  0  0  0  0  0  0  0
   -3.3281    2.4327    1.8922 C   0  0  0  0  0  0  0  0  0  0  0  0
   -2.4848    3.4355    1.1196 C   0  0  0  0  0  0  0  0  0  0  0  0
   -0.9870    3.3049    1.4109 C   0  0  0  0  0  0  0  0  0  0  0  0
   -0.4883    1.8476    1.6800 C   0  0  0  0  0  0  0  0  0  0  0  0
   -1.4967    0.8394    1.0157 C   0  0  0  0  0  0  0  0  0  0  0  0
   -0.9528   -0.6022    1.0347 C   0  0  0  0  0  0  0  0  0  0  0  0
    0.3618   -0.6968    0.2709 C   0  0  0  0  0  0  0  0  0  0  0  0
    1.4553    0.2063    0.8482 C   0  0  0  0  0  0  0  0  0  0  0  0
    0.9422    1.6777    1.0073 C   0  0  0  0  0  0  0  0  0  0  0  0
    2.0395    2.5937    1.5990 C   0  0  0  0  0  0  0  0  0  0  0  0
    3.4258    2.3594    0.9759 C   0  0  0  0  0  0  0  0  0  0  0  0
    3.7749    0.8712    0.7706 C   0  0  0  0  0  0  0  0  0  0  0  0
    2.6709    0.2389   -0.0962 C   0  0  0  0  0  0  0  0  0  0  0  0
    3.5608    0.0838    2.0575 C   0  0  0  0  0  0  0  0  0  0  0  0
    4.4101   -0.1523    3.0655 C   0  0  0  0  0  0  0  0  0  0  0  0
    2.1202   -0.4001    2.1051 C   0  0  0  0  0  0  0  0  0  0  0  0
    4.9884    0.5998    0.0805 O   0  0  0  0  0  0  0  0  0  0  0  0
    6.1848    1.2892    0.4430 C   0  0  0  0  0  0  0  0  0  0  0  0
    6.1089    2.6823    0.1481 O   0  0  0  0  0  0  0  0  0  0  0  0
    7.2147    3.4417    0.6919 C   0  0  0  0  0  0  0  0  0  0  0  0
    6.9669    3.8499    2.1502 C   0  0  0  0  0  0  0  0  0  0  0  0
    5.9038    4.8052    2.2171 O   0  0  0  0  0  0  0  0  0  0  0  0
    8.5558    2.7106    0.4890 C   0  0  0  0  0  0  0  0  0  0  0  0
    8.4164    1.7386   -0.6865 C   0  0  0  0  0  0  0  0  0  0  0  0
    7.3464    0.6549   -0.3868 C   0  0  0  0  0  0  0  0  0  0  0  0
    7.8623   -0.4676    0.3629 O   0  0  0  0  0  0  0  0  0  0  0  0
    8.4079   -1.5153   -0.4480 C   0  0  0  0  0  0  0  0  0  0  0  0
    7.4142   -2.0584   -1.3097 O   0  0  0  0  0  0  0  0  0  0  0  0
    7.7712   -3.2854   -1.9644 C   0  0  0  0  0  0  0  0  0  0  0  0
    7.3725   -3.1306   -3.4417 C   0  0  0  0  0  0  0  0  0  0  0  0
    7.7156   -4.2843   -4.2018 O   0  0  0  0  0  0  0  0  0  0  0  0
    9.2535   -3.6817   -1.8040 C   0  0  0  0  0  0  0  0  0  0  0  0
    9.6396   -3.7167   -0.3170 C   0  0  0  0  0  0  0  0  0  0  0  0
    8.9775   -2.5927    0.4894 C   0  0  0  0  0  0  0  0  0  0  0  0
    9.9370   -2.0046    1.3873 O   0  0  0  0  0  0  0  0  0  0  0  0
    9.2585   -4.9920    0.2328 O   0  0  0  0  0  0  0  0  0  0  0  0
    9.5555   -4.9570   -2.3840 O   0  0  0  0  0  0  0  0  0  0  0  0
    9.7080    1.1913   -0.9822 O   0  0  0  0  0  0  0  0  0  0  0  0
    8.9599    1.9783    1.6572 O   0  0  0  0  0  0  0  0  0  0  0  0
   -0.4179    1.6504    3.2150 C   0  0  0  0  0  0  0  0  0  0  0  0
   -6.3737    0.3671   -1.5248 C   0  0  0  0  0  0  0  0  0  0  0  0
   -6.9187    1.7904   -1.6739 C   0  0  0  0  0  0  0  0  0  0  0  0
   -8.2200    1.9840   -0.8899 C   0  0  0  0  0  0  0  0  0  0  0  0
   -8.6073    3.3604   -0.9788 O   0  0  0  0  0  0  0  0  0  0  0  0
   -7.1709    2.0928   -3.0574 O   0  0  0  0  0  0  0  0  0  0  0  0
   -7.2809   -0.5156   -2.2417 O   0  0  0  0  0  0  0  0  0  0  0  0
   -6.7529   -1.8447   -2.3848 C   0  0  0  0  0  0  0  0  0  0  0  0
   -7.1795   -2.6623   -1.3016 O   0  0  0  0  0  0  0  0  0  0  0  0
   -8.5803   -2.9549   -1.2542 C   0  0  0  0  0  0  0  0  0  0  0  0
   -9.2712   -2.1141   -0.1799 C   0  0  0  0  0  0  0  0  0  0  0  0
  -10.6311   -2.5182   -0.0097 O   0  0  0  0  0  0  0  0  0  0  0  0
   -9.3317   -2.8064   -2.5927 C   0  0  0  0  0  0  0  0  0  0  0  0
   -8.4371   -3.2499   -3.7412 C   0  0  0  0  0  0  0  0  0  0  0  0
   -7.1419   -2.4278   -3.7715 C   0  0  0  0  0  0  0  0  0  0  0  0
   -6.0879   -3.2533   -4.2960 O   0  0  0  0  0  0  0  0  0  0  0  0
   -8.1223   -4.6531   -3.5934 O   0  0  0  0  0  0  0  0  0  0  0  0
  -10.5192   -3.6126   -2.5911 O   0  0  0  0  0  0  0  0  0  0  0  0
  -11.1736    1.1359    1.2693 H   0  0  0  0  0  0  0  0  0  0  0  0
   -9.6647    2.7054    1.4153 H   0  0  0  0  0  0  0  0  0  0  0  0
   -9.1393    1.3226    2.4080 H   0  0  0  0  0  0  0  0  0  0  0  0
   -7.2910    2.2531    1.0473 H   0  0  0  0  0  0  0  0  0  0  0  0
   -6.0093   -1.0290    0.1241 H   0  0  0  0  0  0  0  0  0  0  0  0
   -3.2755   -1.0199    2.4268 H   0  0  0  0  0  0  0  0  0  0  0  0
   -2.6474    0.1914    3.5565 H   0  0  0  0  0  0  0  0  0  0  0  0
   -4.3402    0.2165    3.0778 H   0  0  0  0  0  0  0  0  0  0  0  0
   -3.1852    2.6011    2.9646 H   0  0  0  0  0  0  0  0  0  0  0  0
   -4.3808    2.6743    1.7133 H   0  0  0  0  0  0  0  0  0  0  0  0
   -2.8070    4.4565    1.3577 H   0  0  0  0  0  0  0  0  0  0  0  0
   -2.6600    3.3063    0.0437 H   0  0  0  0  0  0  0  0  0  0  0  0
   -0.4637    3.7463    0.5535 H   0  0  0  0  0  0  0  0  0  0  0  0
   -0.7312    3.9504    2.2631 H   0  0  0  0  0  0  0  0  0  0  0  0
   -1.5175    1.1267   -0.0484 H   0  0  0  0  0  0  0  0  0  0  0  0
   -0.8153   -0.9674    2.0563 H   0  0  0  0  0  0  0  0  0  0  0  0
   -1.6639   -1.2835    0.5575 H   0  0  0  0  0  0  0  0  0  0  0  0
    0.6948   -1.7425    0.2522 H   0  0  0  0  0  0  0  0  0  0  0  0
    0.1786   -0.4240   -0.7770 H   0  0  0  0  0  0  0  0  0  0  0  0
    0.8039    2.0327   -0.0278 H   0  0  0  0  0  0  0  0  0  0  0  0
    2.1400    2.4343    2.6777 H   0  0  0  0  0  0  0  0  0  0  0  0
    1.7725    3.6487    1.4734 H   0  0  0  0  0  0  0  0  0  0  0  0
    4.1628    2.8332    1.6324 H   0  0  0  0  0  0  0  0  0  0  0  0
    3.4872    2.8891    0.0151 H   0  0  0  0  0  0  0  0  0  0  0  0
    2.9592   -0.7715   -0.4202 H   0  0  0  0  0  0  0  0  0  0  0  0
    2.4911    0.8099   -1.0146 H   0  0  0  0  0  0  0  0  0  0  0  0
    5.4305    0.2038    3.0692 H   0  0  0  0  0  0  0  0  0  0  0  0
    4.0955   -0.7103    3.9405 H   0  0  0  0  0  0  0  0  0  0  0  0
    2.1127   -1.4974    2.0619 H   0  0  0  0  0  0  0  0  0  0  0  0
    1.6404   -0.0933    3.0343 H   0  0  0  0  0  0  0  0  0  0  0  0
    6.3653    1.1409    1.5069 H   0  0  0  0  0  0  0  0  0  0  0  0
    7.2310    4.3487    0.0760 H   0  0  0  0  0  0  0  0  0  0  0  0
    7.8574    4.3201    2.5827 H   0  0  0  0  0  0  0  0  0  0  0  0
    6.6767    2.9905    2.7627 H   0  0  0  0  0  0  0  0  0  0  0  0
    5.6034    4.8204    3.1428 H   0  0  0  0  0  0  0  0  0  0  0  0
    9.3538    3.4385    0.3059 H   0  0  0  0  0  0  0  0  0  0  0  0
    8.1044    2.3171   -1.5671 H   0  0  0  0  0  0  0  0  0  0  0  0
    6.9496    0.2951   -1.3450 H   0  0  0  0  0  0  0  0  0  0  0  0
    9.2176   -1.0997   -1.0578 H   0  0  0  0  0  0  0  0  0  0  0  0
    7.1504   -4.0846   -1.5406 H   0  0  0  0  0  0  0  0  0  0  0  0
    7.8726   -2.2601   -3.8800 H   0  0  0  0  0  0  0  0  0  0  0  0
    6.2933   -2.9575   -3.5223 H   0  0  0  0  0  0  0  0  0  0  0  0
    7.3364   -4.1487   -5.0907 H   0  0  0  0  0  0  0  0  0  0  0  0
    9.8785   -2.9366   -2.3116 H   0  0  0  0  0  0  0  0  0  0  0  0
   10.7324   -3.6735   -0.2294 H   0  0  0  0  0  0  0  0  0  0  0  0
    8.1743   -3.0011    1.1173 H   0  0  0  0  0  0  0  0  0  0  0  0
    9.4418   -1.3103    1.8659 H   0  0  0  0  0  0  0  0  0  0  0  0
    9.5875   -5.6439   -0.4171 H   0  0  0  0  0  0  0  0  0  0  0  0
    9.0418   -5.0125   -3.2192 H   0  0  0  0  0  0  0  0  0  0  0  0
    9.6784    0.8796   -1.9035 H   0  0  0  0  0  0  0  0  0  0  0  0
    9.6894    1.3996    1.3510 H   0  0  0  0  0  0  0  0  0  0  0  0
   -0.2508    0.6110    3.4976 H   0  0  0  0  0  0  0  0  0  0  0  0
    0.3669    2.2539    3.6766 H   0  0  0  0  0  0  0  0  0  0  0  0
   -1.3343    1.9635    3.7150 H   0  0  0  0  0  0  0  0  0  0  0  0
   -5.4156    0.3388   -2.0514 H   0  0  0  0  0  0  0  0  0  0  0  0
   -6.1746    2.5196   -1.3337 H   0  0  0  0  0  0  0  0  0  0  0  0
   -9.0163    1.3939   -1.3573 H   0  0  0  0  0  0  0  0  0  0  0  0
   -8.5088    3.5971   -1.9235 H   0  0  0  0  0  0  0  0  0  0  0  0
   -7.6071    1.2979   -3.4271 H   0  0  0  0  0  0  0  0  0  0  0  0
   -5.6561   -1.8093   -2.3451 H   0  0  0  0  0  0  0  0  0  0  0  0
   -8.6605   -4.0016   -0.9333 H   0  0  0  0  0  0  0  0  0  0  0  0
   -8.7477   -2.2018    0.7772 H   0  0  0  0  0  0  0  0  0  0  0  0
   -9.2709   -1.0628   -0.4794 H   0  0  0  0  0  0  0  0  0  0  0  0
  -10.9744   -1.9254    0.6848 H   0  0  0  0  0  0  0  0  0  0  0  0
   -9.6386   -1.7671   -2.7610 H   0  0  0  0  0  0  0  0  0  0  0  0
   -8.9638   -3.1686   -4.6996 H   0  0  0  0  0  0  0  0  0  0  0  0
   -7.2637   -1.5918   -4.4721 H   0  0  0  0  0  0  0  0  0  0  0  0
   -6.3590   -4.1723   -4.0746 H   0  0  0  0  0  0  0  0  0  0  0  0
   -8.9835   -5.0819   -3.4110 H   0  0  0  0  0  0  0  0  0  0  0  0
  -10.9688   -3.4149   -1.7344 H   0  0  0  0  0  0  0  0  0  0  0  0
  1  2  1  0
  2  3  1  0
  3  4  1  0
  4  5  1  0
  5  6  1  0
  6  7  1  0
  7  8  2  0
  7  9  1  0
  9 10  1  0
  9 11  1  0
 11 12  1  0
 12 13  1  0
 13 14  1  0
 14 15  1  0
 15 16  1  0
 16 17  1  0
 17 18  1  0
 18 19  1  0
 19 20  1  0
 20 21  1  0
 21 22  1  0
 22 23  1  0
 22 24  1  0
 24 25  2  0
 24 26  1  0
 22 27  1  0
 27 28  1  0
 28 29  1  0
 29 30  1  0
 30 31  1  0
 31 32  1  0
 30 33  1  0
 33 34  1  0
 34 35  1  0
 35 36  1  0
 36 37  1  0
 37 38  1  0
 38 39  1  0
 39 40  1  0
 40 41  1  0
 39 42  1  0
 42 43  1  0
 43 44  1  0
 44 45  1  0
 43 46  1  0
 42 47  1  0
 34 48  1  0
 33 49  1  0
 14 50  1  0
  5 51  1  0
 51 52  1  0
 52 53  1  0
 53 54  1  0
 52 55  1  0
 51 56  1  0
 56 57  1  0
 57 58  1  0
 58 59  1  0
 59 60  1  0
 60 61  1  0
 59 62  1  0
 62 63  1  0
 63 64  1  0
 64 65  1  0
 63 66  1  0
 62 67  1  0
 53  3  1  0
 64 57  1  0
 15  9  1  0
 26 18  1  0
 35 28  1  0
 44 37  1  0
 19 14  1  0
 23 18  1  0
  1 68  1  0
  2 69  1  0
  2 70  1  0
  3 71  1  0
  5 72  1  0
 10 73  1  0
 10 74  1  0
 10 75  1  0
 11 76  1  0
 11 77  1  0
 12 78  1  0
 12 79  1  0
 13 80  1  0
 13 81  1  0
 15 82  1  0
 16 83  1  0
 16 84  1  0
 17 85  1  0
 17 86  1  0
 19 87  1  0
 20 88  1  0
 20 89  1  0
 21 90  1  0
 21 91  1  0
 23 92  1  0
 23 93  1  0
 25 94  1  0
 25 95  1  0
 26 96  1  0
 26 97  1  0
 28 98  1  0
 30 99  1  0
 31100  1  0
 31101  1  0
 32102  1  0
 33103  1  0
 34104  1  0
 35105  1  0
 37106  1  0
 39107  1  0
 40108  1  0
 40109  1  0
 41110  1  0
 42111  1  0
 43112  1  0
 44113  1  0
 45114  1  0
 46115  1  0
 47116  1  0
 48117  1  0
 49118  1  0
 50119  1  0
 50120  1  0
 50121  1  0
 51122  1  0
 52123  1  0
 53124  1  0
 54125  1  0
 55126  1  0
 57127  1  0
 59128  1  0
 60129  1  0
 60130  1  0
 61131  1  0
 62132  1  0
 63133  1  0
 64134  1  0
 65135  1  0
 66136  1  0
 67137  1  0
M  END
