
     RDKit          3D

 43 44  0  0  0  0  0  0  0  0999 V2000
   -6.2403   -0.3178   -1.0095 C   0  0  0  0  0  0  0  0  0  0  0  0
   -5.0964   -1.1736   -1.5353 C   0  0  0  0  0  0  0  0  0  0  0  0
   -3.9137   -1.2206   -0.5699 C   0  0  0  0  0  0  0  0  0  0  0  0
   -3.3777    0.0962   -0.4357 O   0  0  0  0  0  0  0  0  0  0  0  0
   -2.3037    0.2424    0.4037 C   0  0  0  0  0  0  0  0  0  0  0  0
   -1.6767   -0.7698    1.1267 C   0  0  0  0  0  0  0  0  0  0  0  0
   -0.5814   -0.4698    1.9467 C   0  0  0  0  0  0  0  0  0  0  0  0
   -0.0988    0.8426    2.0544 C   0  0  0  0  0  0  0  0  0  0  0  0
   -0.7293    1.8574    1.3261 C   0  0  0  0  0  0  0  0  0  0  0  0
   -1.8163    1.5491    0.5162 C   0  0  0  0  0  0  0  0  0  0  0  0
   -2.4089    2.5657   -0.1845 O   0  0  0  0  0  0  0  0  0  0  0  0
    1.1045    1.1517    2.9146 C   0  0  0  0  0  0  0  0  0  0  0  0
    2.3974    1.2298    2.1001 C   0  0  0  0  0  0  0  0  0  0  0  0
    2.8647   -0.1382    1.6368 C   0  0  0  0  0  0  0  0  0  0  0  0
    2.6710   -1.1610    2.3007 O   0  0  0  0  0  0  0  0  0  0  0  0
    3.5506   -0.2852    0.3231 C   0  0  0  0  0  0  0  0  0  0  0  0
    3.4066   -1.4970   -0.3746 C   0  0  0  0  0  0  0  0  0  0  0  0
    2.7030   -2.5659    0.1193 O   0  0  0  0  0  0  0  0  0  0  0  0
    3.9867   -1.6769   -1.6288 C   0  0  0  0  0  0  0  0  0  0  0  0
    4.7425   -0.6538   -2.1959 C   0  0  0  0  0  0  0  0  0  0  0  0
    4.9268    0.5433   -1.5032 C   0  0  0  0  0  0  0  0  0  0  0  0
    4.3390    0.7237   -0.2463 C   0  0  0  0  0  0  0  0  0  0  0  0
    4.5806    1.8882    0.4291 O   0  0  0  0  0  0  0  0  0  0  0  0
   -6.6008   -0.6950   -0.0472 H   0  0  0  0  0  0  0  0  0  0  0  0
   -7.0772   -0.3325   -1.7148 H   0  0  0  0  0  0  0  0  0  0  0  0
   -5.9308    0.7236   -0.8766 H   0  0  0  0  0  0  0  0  0  0  0  0
   -5.4596   -2.1916   -1.7139 H   0  0  0  0  0  0  0  0  0  0  0  0
   -4.7687   -0.7618   -2.4970 H   0  0  0  0  0  0  0  0  0  0  0  0
   -3.1519   -1.8920   -0.9838 H   0  0  0  0  0  0  0  0  0  0  0  0
   -4.2511   -1.5969    0.4035 H   0  0  0  0  0  0  0  0  0  0  0  0
   -2.0050   -1.8022    1.0767 H   0  0  0  0  0  0  0  0  0  0  0  0
   -0.0986   -1.2747    2.4995 H   0  0  0  0  0  0  0  0  0  0  0  0
   -0.3808    2.8849    1.3818 H   0  0  0  0  0  0  0  0  0  0  0  0
   -3.1369    2.1357   -0.6742 H   0  0  0  0  0  0  0  0  0  0  0  0
    0.9353    2.1148    3.4132 H   0  0  0  0  0  0  0  0  0  0  0  0
    1.1885    0.4112    3.7196 H   0  0  0  0  0  0  0  0  0  0  0  0
    2.2405    1.8898    1.2409 H   0  0  0  0  0  0  0  0  0  0  0  0
    3.1924    1.6497    2.7264 H   0  0  0  0  0  0  0  0  0  0  0  0
    2.5256   -2.3866    1.0704 H   0  0  0  0  0  0  0  0  0  0  0  0
    3.8532   -2.6178   -2.1566 H   0  0  0  0  0  0  0  0  0  0  0  0
    5.1980   -0.7961   -3.1730 H   0  0  0  0  0  0  0  0  0  0  0  0
    5.5363    1.3200   -1.9569 H   0  0  0  0  0  0  0  0  0  0  0  0
    5.1614    2.4573   -0.1047 H   0  0  0  0  0  0  0  0  0  0  0  0
  1  2  1  0
  2  3  1  0
  3  4  1  0
  4  5  1  0
  5  6  2  0
  6  7  1  0
  7  8  2  0
  8  9  1  0
  9 10  2  0
 10 11  1  0
  8 12  1  0
 12 13  1  0
 13 14  1  0
 14 15  2  0
 14 16  1  0
 16 17  2  0
 17 18  1  0
 17 19  1  0
 19 20  2  0
 20 21  1  0
 21 22  2  0
 22 23  1  0
 10  5  1  0
 22 16  1  0
  1 24  1  0
  1 25  1  0
  1 26  1  0
  2 27  1  0
  2 28  1  0
  3 29  1  0
  3 30  1  0
  6 31  1  0
  7 32  1  0
  9 33  1  0
 11 34  1  0
 12 35  1  0
 12 36  1  0
 13 37  1  0
 13 38  1  0
 18 39  1  0
 19 40  1  0
 20 41  1  0
 21 42  1  0
 23 43  1  0
M  END
