
     RDKit          3D

 37 38  0  0  0  0  0  0  0  0999 V2000
    4.4658    0.7778   -2.0478 C   0  0  0  0  0  0  0  0  0  0  0  0
    4.7368    1.0324   -0.6744 O   0  0  0  0  0  0  0  0  0  0  0  0
    3.8464    0.5155    0.2320 C   0  0  0  0  0  0  0  0  0  0  0  0
    2.6823   -0.1942   -0.0670 C   0  0  0  0  0  0  0  0  0  0  0  0
    1.8554   -0.6726    0.9658 C   0  0  0  0  0  0  0  0  0  0  0  0
    0.5840   -1.4204    0.6401 C   0  0  0  0  0  0  0  0  0  0  0  0
   -0.6235   -0.4820    0.5991 C   0  0  0  0  0  0  0  0  0  0  0  0
   -1.8870   -1.2217    0.2052 C   0  0  0  0  0  0  0  0  0  0  0  0
   -1.9346   -2.4555    0.1883 O   0  0  0  0  0  0  0  0  0  0  0  0
   -3.1136   -0.4680   -0.2086 C   0  0  0  0  0  0  0  0  0  0  0  0
   -3.3168    0.8957    0.0546 C   0  0  0  0  0  0  0  0  0  0  0  0
   -2.4010    1.6244    0.7609 O   0  0  0  0  0  0  0  0  0  0  0  0
   -4.4780    1.5463   -0.3820 C   0  0  0  0  0  0  0  0  0  0  0  0
   -5.4557    0.8417   -1.0821 C   0  0  0  0  0  0  0  0  0  0  0  0
   -5.2800   -0.5138   -1.3397 C   0  0  0  0  0  0  0  0  0  0  0  0
   -4.1250   -1.1617   -0.9017 C   0  0  0  0  0  0  0  0  0  0  0  0
   -4.0572   -2.4997   -1.1986 O   0  0  0  0  0  0  0  0  0  0  0  0
    2.2039   -0.4241    2.3018 C   0  0  0  0  0  0  0  0  0  0  0  0
    3.3634    0.2860    2.6066 C   0  0  0  0  0  0  0  0  0  0  0  0
    4.1688    0.7467    1.5739 C   0  0  0  0  0  0  0  0  0  0  0  0
    5.3020    1.4428    1.8991 O   0  0  0  0  0  0  0  0  0  0  0  0
    3.5243    1.2440   -2.3565 H   0  0  0  0  0  0  0  0  0  0  0  0
    5.2696    1.2308   -2.6360 H   0  0  0  0  0  0  0  0  0  0  0  0
    4.4644   -0.2969   -2.2582 H   0  0  0  0  0  0  0  0  0  0  0  0
    2.3912   -0.3905   -1.0938 H   0  0  0  0  0  0  0  0  0  0  0  0
    0.4297   -2.2124    1.3846 H   0  0  0  0  0  0  0  0  0  0  0  0
    0.6978   -1.9379   -0.3214 H   0  0  0  0  0  0  0  0  0  0  0  0
   -0.4333    0.3117   -0.1323 H   0  0  0  0  0  0  0  0  0  0  0  0
   -0.7721   -0.0410    1.5908 H   0  0  0  0  0  0  0  0  0  0  0  0
   -2.7223    2.5353    0.8762 H   0  0  0  0  0  0  0  0  0  0  0  0
   -4.6404    2.6023   -0.1829 H   0  0  0  0  0  0  0  0  0  0  0  0
   -6.3577    1.3452   -1.4213 H   0  0  0  0  0  0  0  0  0  0  0  0
   -6.0418   -1.0728   -1.8778 H   0  0  0  0  0  0  0  0  0  0  0  0
   -3.2709   -2.8703   -0.7363 H   0  0  0  0  0  0  0  0  0  0  0  0
    1.5727   -0.7832    3.1117 H   0  0  0  0  0  0  0  0  0  0  0  0
    3.6379    0.4791    3.6391 H   0  0  0  0  0  0  0  0  0  0  0  0
    5.7143    1.6609    1.0408 H   0  0  0  0  0  0  0  0  0  0  0  0
  1  2  1  0
  2  3  1  0
  3  4  2  0
  4  5  1  0
  5  6  1  0
  6  7  1  0
  7  8  1  0
  8  9  2  0
  8 10  1  0
 10 11  2  0
 11 12  1  0
 11 13  1  0
 13 14  2  0
 14 15  1  0
 15 16  2  0
 16 17  1  0
  5 18  2  0
 18 19  1  0
 19 20  2  0
 20 21  1  0
 20  3  1  0
 16 10  1  0
  1 22  1  0
  1 23  1  0
  1 24  1  0
  4 25  1  0
  6 26  1  0
  6 27  1  0
  7 28  1  0
  7 29  1  0
 12 30  1  0
 13 31  1  0
 14 32  1  0
 15 33  1  0
 17 34  1  0
 18 35  1  0
 19 36  1  0
 21 37  1  0
M  END
