
     RDKit          3D

 33 34  0  0  0  0  0  0  0  0999 V2000
    6.1802   -0.1678    0.9103 O   0  0  0  0  0  0  0  0  0  0  0  0
    4.8332   -0.1599    1.1226 C   0  0  0  0  0  0  0  0  0  0  0  0
    4.1831    0.9692    1.6096 C   0  0  0  0  0  0  0  0  0  0  0  0
    2.8015    0.9326    1.8115 C   0  0  0  0  0  0  0  0  0  0  0  0
    2.0714   -0.2316    1.5321 C   0  0  0  0  0  0  0  0  0  0  0  0
    2.7451   -1.3569    1.0374 C   0  0  0  0  0  0  0  0  0  0  0  0
    4.1253   -1.3201    0.8346 C   0  0  0  0  0  0  0  0  0  0  0  0
    0.5756   -0.2620    1.7308 C   0  0  0  0  0  0  0  0  0  0  0  0
   -0.1670    0.1728    0.4662 C   0  0  0  0  0  0  0  0  0  0  0  0
   -1.6695    0.1047    0.6569 C   0  0  0  0  0  0  0  0  0  0  0  0
   -2.1774    0.0165    1.7790 O   0  0  0  0  0  0  0  0  0  0  0  0
   -2.5863    0.1111   -0.5263 C   0  0  0  0  0  0  0  0  0  0  0  0
   -2.2071    0.5564   -1.8019 C   0  0  0  0  0  0  0  0  0  0  0  0
   -0.9612    1.0709   -2.0294 O   0  0  0  0  0  0  0  0  0  0  0  0
   -3.1061    0.5093   -2.8750 C   0  0  0  0  0  0  0  0  0  0  0  0
   -4.3991    0.0240   -2.6856 C   0  0  0  0  0  0  0  0  0  0  0  0
   -4.7993   -0.4051   -1.4242 C   0  0  0  0  0  0  0  0  0  0  0  0
   -3.9043   -0.3545   -0.3556 C   0  0  0  0  0  0  0  0  0  0  0  0
   -4.4023   -0.7886    0.8471 O   0  0  0  0  0  0  0  0  0  0  0  0
    6.5381    0.6945    1.1768 H   0  0  0  0  0  0  0  0  0  0  0  0
    4.7280    1.8799    1.8355 H   0  0  0  0  0  0  0  0  0  0  0  0
    2.2952    1.8180    2.1901 H   0  0  0  0  0  0  0  0  0  0  0  0
    2.1994   -2.2693    0.8083 H   0  0  0  0  0  0  0  0  0  0  0  0
    4.6460   -2.1941    0.4543 H   0  0  0  0  0  0  0  0  0  0  0  0
    0.2662   -1.2731    2.0263 H   0  0  0  0  0  0  0  0  0  0  0  0
    0.3082    0.3866    2.5752 H   0  0  0  0  0  0  0  0  0  0  0  0
    0.1189   -0.4887   -0.3594 H   0  0  0  0  0  0  0  0  0  0  0  0
    0.1062    1.2048    0.2203 H   0  0  0  0  0  0  0  0  0  0  0  0
   -0.8809    1.3388   -2.9610 H   0  0  0  0  0  0  0  0  0  0  0  0
   -2.8187    0.8508   -3.8658 H   0  0  0  0  0  0  0  0  0  0  0  0
   -5.0983   -0.0130   -3.5174 H   0  0  0  0  0  0  0  0  0  0  0  0
   -5.8090   -0.7760   -1.2660 H   0  0  0  0  0  0  0  0  0  0  0  0
   -3.7350   -0.5804    1.5405 H   0  0  0  0  0  0  0  0  0  0  0  0
  1  2  1  0
  2  3  2  0
  3  4  1  0
  4  5  2  0
  5  6  1  0
  6  7  2  0
  5  8  1  0
  8  9  1  0
  9 10  1  0
 10 11  2  0
 10 12  1  0
 12 13  2  0
 13 14  1  0
 13 15  1  0
 15 16  2  0
 16 17  1  0
 17 18  2  0
 18 19  1  0
  7  2  1  0
 18 12  1  0
  1 20  1  0
  3 21  1  0
  4 22  1  0
  6 23  1  0
  7 24  1  0
  8 25  1  0
  8 26  1  0
  9 27  1  0
  9 28  1  0
 14 29  1  0
 15 30  1  0
 16 31  1  0
 17 32  1  0
 19 33  1  0
M  END
