
     RDKit          3D

 14 14  0  0  0  0  0  0  0  0999 V2000
    2.6697   -1.5457   -0.4771 O   0  0  0  0  0  1  0  0  0  0  0  0
    2.2957   -0.3782   -0.2939 N   0  0  0  0  0  4  0  0  0  0  0  0
    3.0521    0.6031   -0.2555 O   0  0  0  0  0  0  0  0  0  0  0  0
    0.8587   -0.1415   -0.1099 C   0  0  0  0  0  0  0  0  0  0  0  0
   -0.0332   -1.2220   -0.1459 C   0  0  0  0  0  0  0  0  0  0  0  0
   -1.3986   -0.9907    0.0297 C   0  0  0  0  0  0  0  0  0  0  0  0
   -1.8674    0.3077    0.2391 C   0  0  0  0  0  0  0  0  0  0  0  0
   -0.9763    1.3819    0.2744 C   0  0  0  0  0  0  0  0  0  0  0  0
    0.3913    1.1630    0.1001 C   0  0  0  0  0  0  0  0  0  0  0  0
    0.3161   -2.2396   -0.3081 H   0  0  0  0  0  0  0  0  0  0  0  0
   -2.0989   -1.8227    0.0035 H   0  0  0  0  0  0  0  0  0  0  0  0
   -2.9325    0.4831    0.3755 H   0  0  0  0  0  0  0  0  0  0  0  0
   -1.3490    2.3908    0.4380 H   0  0  0  0  0  0  0  0  0  0  0  0
    1.0725    2.0108    0.1303 H   0  0  0  0  0  0  0  0  0  0  0  0
  1  2  1  0
  2  3  2  0
  2  4  1  0
  4  5  2  0
  5  6  1  0
  6  7  2  0
  7  8  1  0
  8  9  2  0
  9  4  1  0
  5 10  1  0
  6 11  1  0
  7 12  1  0
  8 13  1  0
  9 14  1  0
M  CHG  2   1  -1   2   1
M  END
