
     RDKit          3D

 16 16  0  0  0  0  0  0  0  0999 V2000
   -3.4142   -0.9051    0.2211 O   0  0  0  0  0  1  0  0  0  0  0  0
   -2.2705   -1.3797    0.2467 N   0  0  0  0  0  4  0  0  0  0  0  0
   -2.0084   -2.5811    0.3926 O   0  0  0  0  0  0  0  0  0  0  0  0
   -1.1424   -0.4507    0.0929 C   0  0  0  0  0  0  0  0  0  0  0  0
   -1.3936    0.9199   -0.0749 C   0  0  0  0  0  0  0  0  0  0  0  0
   -0.3257    1.8079   -0.2216 C   0  0  0  0  0  0  0  0  0  0  0  0
    0.9876    1.3334   -0.2013 C   0  0  0  0  0  0  0  0  0  0  0  0
    1.2306   -0.0387   -0.0330 C   0  0  0  0  0  0  0  0  0  0  0  0
    0.1698   -0.9426    0.1155 C   0  0  0  0  0  0  0  0  0  0  0  0
    2.6148   -0.5314   -0.0125 N   0  0  0  0  0  4  0  0  0  0  0  0
    2.7884   -1.7481    0.1381 O   0  0  0  0  0  1  0  0  0  0  0  0
    3.5233    0.2997   -0.1469 O   0  0  0  0  0  0  0  0  0  0  0  0
   -2.4107    1.3095   -0.0935 H   0  0  0  0  0  0  0  0  0  0  0  0
   -0.5174    2.8719   -0.3520 H   0  0  0  0  0  0  0  0  0  0  0  0
    1.8069    2.0419   -0.3173 H   0  0  0  0  0  0  0  0  0  0  0  0
    0.3615   -2.0067    0.2460 H   0  0  0  0  0  0  0  0  0  0  0  0
  1  2  1  0
  2  3  2  0
  2  4  1  0
  4  5  2  0
  5  6  1  0
  6  7  2  0
  7  8  1  0
  8  9  2  0
  8 10  1  0
 10 11  1  0
 10 12  2  0
  9  4  1  0
  5 13  1  0
  6 14  1  0
  7 15  1  0
  9 16  1  0
M  CHG  4   1  -1   2   1  10   1  11  -1
M  END
