
     RDKit          3D

 18 18  0  0  0  0  0  0  0  0999 V2000
    2.5807    0.9140   -0.5692 N   0  0  0  0  0  0  0  0  0  0  0  0
    2.5121   -0.3664   -0.1576 C   0  0  0  0  0  0  0  0  0  0  0  0
    3.9104   -1.2314    0.0930 S   0  0  0  0  0  0  0  0  0  0  0  0
    1.3033   -0.9542    0.0038 N   0  0  0  0  0  0  0  0  0  0  0  0
    0.0029   -0.4175    0.0951 C   0  0  0  0  0  0  0  0  0  0  0  0
   -0.2760    0.9296    0.3356 C   0  0  0  0  0  0  0  0  0  0  0  0
   -1.5989    1.3754    0.4263 C   0  0  0  0  0  0  0  0  0  0  0  0
   -2.6534    0.4759    0.2903 C   0  0  0  0  0  0  0  0  0  0  0  0
   -2.3865   -0.8734    0.0772 C   0  0  0  0  0  0  0  0  0  0  0  0
   -1.0648   -1.3182   -0.0109 C   0  0  0  0  0  0  0  0  0  0  0  0
    1.8500    1.2333   -1.1924 H   0  0  0  0  0  0  0  0  0  0  0  0
    3.5083    1.2493   -0.8019 H   0  0  0  0  0  0  0  0  0  0  0  0
    1.3700   -1.9607    0.1140 H   0  0  0  0  0  0  0  0  0  0  0  0
    0.5138    1.6526    0.5102 H   0  0  0  0  0  0  0  0  0  0  0  0
   -1.8032    2.4255    0.6205 H   0  0  0  0  0  0  0  0  0  0  0  0
   -3.6804    0.8242    0.3644 H   0  0  0  0  0  0  0  0  0  0  0  0
   -3.2055   -1.5816   -0.0183 H   0  0  0  0  0  0  0  0  0  0  0  0
   -0.8827   -2.3766   -0.1798 H   0  0  0  0  0  0  0  0  0  0  0  0
  1  2  1  0
  2  3  2  0
  2  4  1  0
  4  5  1  0
  5  6  2  0
  6  7  1  0
  7  8  2  0
  8  9  1  0
  9 10  2  0
 10  5  1  0
  1 11  1  0
  1 12  1  0
  4 13  1  0
  6 14  1  0
  7 15  1  0
  8 16  1  0
  9 17  1  0
 10 18  1  0
M  END
