
     RDKit          3D

 14 13  0  0  0  0  0  0  0  0999 V2000
   -1.0495   -0.1169    1.3177 C   0  0  0  0  0  0  0  0  0  0  0  0
   -0.1676    0.0095    0.1702 N   0  0  0  0  0  0  0  0  0  0  0  0
    1.0022    0.7154    0.3497 C   0  0  0  0  0  0  0  0  0  0  0  0
    1.3705    1.2059    1.4115 O   0  0  0  0  0  0  0  0  0  0  0  0
    1.7849    0.8572   -0.7484 N   0  0  0  0  0  0  0  0  0  0  0  0
   -0.7884   -0.2049   -1.1293 C   0  0  0  0  0  0  0  0  0  0  0  0
   -0.4863   -0.1093    2.2554 H   0  0  0  0  0  0  0  0  0  0  0  0
   -1.6007   -1.0593    1.2490 H   0  0  0  0  0  0  0  0  0  0  0  0
   -1.7510    0.7229    1.3175 H   0  0  0  0  0  0  0  0  0  0  0  0
    1.9023    0.0208   -1.3003 H   0  0  0  0  0  0  0  0  0  0  0  0
    2.6644    1.3034   -0.5182 H   0  0  0  0  0  0  0  0  0  0  0  0
   -1.4979    0.6078   -1.3128 H   0  0  0  0  0  0  0  0  0  0  0  0
   -1.3209   -1.1605   -1.1179 H   0  0  0  0  0  0  0  0  0  0  0  0
   -0.0624   -0.2221   -1.9442 H   0  0  0  0  0  0  0  0  0  0  0  0
  1  2  1  0
  2  3  1  0
  3  4  2  0
  3  5  1  0
  2  6  1  0
  1  7  1  0
  1  8  1  0
  1  9  1  0
  5 10  1  0
  5 11  1  0
  6 12  1  0
  6 13  1  0
  6 14  1  0
M  END
