
     RDKit          3D

  8  7  0  0  0  0  0  0  0  0999 V2000
    0.9668   -0.3620    0.5218 N   0  0  0  0  0  0  0  0  0  0  0  0
   -0.0326    0.4586    0.1333 C   0  0  0  0  0  0  0  0  0  0  0  0
   -0.1155    1.6262    0.4726 O   0  0  0  0  0  0  0  0  0  0  0  0
   -0.9304   -0.1502   -0.6706 N   0  0  0  0  0  0  0  0  0  0  0  0
    1.7078    0.1266    1.0096 H   0  0  0  0  0  0  0  0  0  0  0  0
    1.2919   -1.0114   -0.1801 H   0  0  0  0  0  0  0  0  0  0  0  0
   -1.1413   -1.1097   -0.4363 H   0  0  0  0  0  0  0  0  0  0  0  0
   -1.7467    0.4218   -0.8502 H   0  0  0  0  0  0  0  0  0  0  0  0
  1  2  1  0
  2  3  2  0
  2  4  1  0
  1  5  1  0
  1  6  1  0
  4  7  1  0
  4  8  1  0
M  END
