
     RDKit          3D

 14 14  0  0  0  0  0  0  0  0999 V2000
   -2.2944   -1.1162   -0.8688 O   0  0  0  0  0  0  0  0  0  0  0  0
   -1.1807   -0.4671   -0.4227 C   0  0  0  0  0  0  0  0  0  0  0  0
   -1.2906    0.8914   -0.1437 C   0  0  0  0  0  0  0  0  0  0  0  0
   -0.1765    1.5958    0.3150 C   0  0  0  0  0  0  0  0  0  0  0  0
    1.0418    0.9371    0.4922 C   0  0  0  0  0  0  0  0  0  0  0  0
    1.1313   -0.4237    0.2072 C   0  0  0  0  0  0  0  0  0  0  0  0
    0.0271   -1.1353   -0.2505 C   0  0  0  0  0  0  0  0  0  0  0  0
    2.3025   -1.1054    0.3665 O   0  0  0  0  0  0  0  0  0  0  0  0
   -2.0651   -2.0484   -1.0190 H   0  0  0  0  0  0  0  0  0  0  0  0
   -2.2410    1.3988   -0.2834 H   0  0  0  0  0  0  0  0  0  0  0  0
   -0.2604    2.6571    0.5335 H   0  0  0  0  0  0  0  0  0  0  0  0
    1.9005    1.4965    0.8495 H   0  0  0  0  0  0  0  0  0  0  0  0
    0.1269   -2.1938   -0.4641 H   0  0  0  0  0  0  0  0  0  0  0  0
    2.9787   -0.4867    0.6884 H   0  0  0  0  0  0  0  0  0  0  0  0
  1  2  1  0
  2  3  2  0
  3  4  1  0
  4  5  2  0
  5  6  1  0
  6  7  2  0
  6  8  1  0
  7  2  1  0
  1  9  1  0
  3 10  1  0
  4 11  1  0
  5 12  1  0
  7 13  1  0
  8 14  1  0
M  END
