
     RDKit          3D

 15 15  0  0  0  0  0  0  0  0999 V2000
   -1.0104    2.4110    0.8503 O   0  0  0  0  0  0  0  0  0  0  0  0
   -0.4886    1.2217    0.4313 C   0  0  0  0  0  0  0  0  0  0  0  0
    0.8866    1.0125    0.3817 C   0  0  0  0  0  0  0  0  0  0  0  0
    1.3661   -0.2194   -0.0535 C   0  0  0  0  0  0  0  0  0  0  0  0
    2.7188   -0.3955   -0.0916 O   0  0  0  0  0  0  0  0  0  0  0  0
    0.4935   -1.2343   -0.4358 C   0  0  0  0  0  0  0  0  0  0  0  0
   -0.8775   -1.0023   -0.3778 C   0  0  0  0  0  0  0  0  0  0  0  0
   -1.3802    0.2218    0.0541 C   0  0  0  0  0  0  0  0  0  0  0  0
   -1.7084   -2.0155   -0.7587 O   0  0  0  0  0  0  0  0  0  0  0  0
   -0.2756    3.0052    1.0784 H   0  0  0  0  0  0  0  0  0  0  0  0
    1.5907    1.7844    0.6732 H   0  0  0  0  0  0  0  0  0  0  0  0
    2.9024   -1.2946   -0.4124 H   0  0  0  0  0  0  0  0  0  0  0  0
    0.8558   -2.1982   -0.7765 H   0  0  0  0  0  0  0  0  0  0  0  0
   -2.4465    0.4138    0.1034 H   0  0  0  0  0  0  0  0  0  0  0  0
   -2.6268   -1.7106   -0.6660 H   0  0  0  0  0  0  0  0  0  0  0  0
  1  2  1  0
  2  3  2  0
  3  4  1  0
  4  5  1  0
  4  6  2  0
  6  7  1  0
  7  8  2  0
  7  9  1  0
  8  2  1  0
  1 10  1  0
  3 11  1  0
  5 12  1  0
  6 13  1  0
  8 14  1  0
  9 15  1  0
M  END
