
     RDKit          3D

115121  0  0  0  0  0  0  0  0999 V2000
   -3.8937   -5.4531   -0.4231 O   0  0  0  0  0  0  0  0  0  0  0  0
   -3.9385   -4.3549   -1.3337 C   0  0  0  0  0  0  0  0  0  0  0  0
   -4.2520   -3.0518   -0.5879 C   0  0  0  0  0  0  0  0  0  0  0  0
   -4.2539   -1.9814   -1.5403 O   0  0  0  0  0  0  0  0  0  0  0  0
   -4.3666   -0.7009   -0.9089 C   0  0  0  0  0  0  0  0  0  0  0  0
   -3.2711   -0.4847   -0.0220 O   0  0  0  0  0  0  0  0  0  0  0  0
   -2.0313   -0.1096   -0.6059 C   0  0  0  0  0  0  0  0  0  0  0  0
   -1.7095   -0.6905   -2.0038 C   0  0  0  0  0  0  0  0  0  0  0  0
   -0.3240   -0.2962   -2.5423 C   0  0  0  0  0  0  0  0  0  0  0  0
    0.7386   -0.4795   -1.4436 C   0  0  0  0  0  0  0  0  0  0  0  0
    0.3004    0.2396   -0.1224 C   0  0  0  0  0  0  0  0  0  0  0  0
   -0.9288   -0.5309    0.3923 C   0  0  0  0  0  0  0  0  0  0  0  0
   -0.3451    1.6494   -0.2919 C   0  0  0  0  0  0  0  0  0  0  0  0
   -1.8004    1.3903   -0.6129 C   0  0  0  0  0  0  0  0  0  0  0  0
   -2.6897    2.3675   -0.8190 C   0  0  0  0  0  0  0  0  0  0  0  0
    1.4573    0.3004    0.8890 C   0  0  0  0  0  0  0  0  0  0  0  0
    2.4783   -0.8127    0.7010 C   0  0  0  0  0  0  0  0  0  0  0  0
    3.1340   -0.9228   -0.7245 C   0  0  0  0  0  0  0  0  0  0  0  0
    2.2421   -0.2418   -1.8462 C   0  0  0  0  0  0  0  0  0  0  0  0
    2.4892   -0.9466   -3.2054 C   0  0  0  0  0  0  0  0  0  0  0  0
    2.5729    1.2605   -2.0188 C   0  0  0  0  0  0  0  0  0  0  0  0
    4.0616    1.5830   -2.0756 C   0  0  0  0  0  0  0  0  0  0  0  0
    4.8102    1.0003   -0.8738 C   0  0  0  0  0  0  0  0  0  0  0  0
    4.6638   -0.5283   -0.7443 C   0  0  0  0  0  0  0  0  0  0  0  0
    5.4582   -1.2160   -1.8842 C   0  0  0  0  0  0  0  0  0  0  0  0
    5.3698   -1.0861    0.5095 C   0  0  0  0  0  0  0  0  0  0  0  0
    5.2192   -2.2297    0.9182 O   0  0  0  0  0  0  0  0  0  0  0  0
    6.2362   -0.1800    1.0456 O   0  0  0  0  0  0  0  0  0  0  0  0
    7.0542   -0.6712    2.1077 C   0  0  0  0  0  0  0  0  0  0  0  0
    8.1725   -1.4203    1.6192 O   0  0  0  0  0  0  0  0  0  0  0  0
    9.0426   -0.6582    0.7725 C   0  0  0  0  0  0  0  0  0  0  0  0
   10.1568   -1.5802    0.2566 C   0  0  0  0  0  0  0  0  0  0  0  0
   10.9645   -0.9547   -0.7408 O   0  0  0  0  0  0  0  0  0  0  0  0
    9.6267    0.5443    1.5276 C   0  0  0  0  0  0  0  0  0  0  0  0
    8.4942    1.3909    2.1118 C   0  0  0  0  0  0  0  0  0  0  0  0
    7.5469    0.5258    2.9530 C   0  0  0  0  0  0  0  0  0  0  0  0
    8.2732    0.1193    4.1308 O   0  0  0  0  0  0  0  0  0  0  0  0
    9.0803    2.4305    2.9155 O   0  0  0  0  0  0  0  0  0  0  0  0
   10.4343    1.3505    0.6602 O   0  0  0  0  0  0  0  0  0  0  0  0
   -5.7234   -0.5969   -0.1700 C   0  0  0  0  0  0  0  0  0  0  0  0
   -5.8903   -1.7625    0.8185 C   0  0  0  0  0  0  0  0  0  0  0  0
   -5.6036   -3.1057    0.1321 C   0  0  0  0  0  0  0  0  0  0  0  0
   -5.7021   -4.1442    1.1206 O   0  0  0  0  0  0  0  0  0  0  0  0
   -7.2446   -1.8081    1.3136 O   0  0  0  0  0  0  0  0  0  0  0  0
   -5.8056    0.6723    0.4966 O   0  0  0  0  0  0  0  0  0  0  0  0
   -7.1185    1.2168    0.5964 C   0  0  0  0  0  0  0  0  0  0  0  0
   -7.2070    1.9167    1.8358 O   0  0  0  0  0  0  0  0  0  0  0  0
   -8.4406    2.6133    2.0725 C   0  0  0  0  0  0  0  0  0  0  0  0
   -9.5709    1.6236    2.3644 C   0  0  0  0  0  0  0  0  0  0  0  0
   -8.7888    3.5852    0.9299 C   0  0  0  0  0  0  0  0  0  0  0  0
   -8.6814    2.9107   -0.4346 C   0  0  0  0  0  0  0  0  0  0  0  0
   -7.3424    2.1815   -0.5885 C   0  0  0  0  0  0  0  0  0  0  0  0
   -7.3421    1.5223   -1.8704 O   0  0  0  0  0  0  0  0  0  0  0  0
   -8.8206    3.9052   -1.4708 O   0  0  0  0  0  0  0  0  0  0  0  0
   -7.8901    4.7059    0.9466 O   0  0  0  0  0  0  0  0  0  0  0  0
   -3.4981   -6.1986   -0.9114 H   0  0  0  0  0  0  0  0  0  0  0  0
   -4.6883   -4.5591   -2.1073 H   0  0  0  0  0  0  0  0  0  0  0  0
   -2.9644   -4.2729   -1.8324 H   0  0  0  0  0  0  0  0  0  0  0  0
   -3.4480   -2.9080    0.1465 H   0  0  0  0  0  0  0  0  0  0  0  0
   -4.3665    0.0652   -1.6898 H   0  0  0  0  0  0  0  0  0  0  0  0
   -2.4525   -0.3928   -2.7493 H   0  0  0  0  0  0  0  0  0  0  0  0
   -1.7479   -1.7840   -1.9520 H   0  0  0  0  0  0  0  0  0  0  0  0
   -0.3247    0.7346   -2.9133 H   0  0  0  0  0  0  0  0  0  0  0  0
   -0.1155   -0.9367   -3.4057 H   0  0  0  0  0  0  0  0  0  0  0  0
    0.7039   -1.5611   -1.2321 H   0  0  0  0  0  0  0  0  0  0  0  0
   -0.7944   -1.6190    0.4136 H   0  0  0  0  0  0  0  0  0  0  0  0
   -1.1958   -0.2369    1.4188 H   0  0  0  0  0  0  0  0  0  0  0  0
   -0.2859    2.2074    0.6537 H   0  0  0  0  0  0  0  0  0  0  0  0
    0.1285    2.2432   -1.0776 H   0  0  0  0  0  0  0  0  0  0  0  0
   -2.3971    3.4095   -0.7822 H   0  0  0  0  0  0  0  0  0  0  0  0
   -3.7361    2.1589   -1.0124 H   0  0  0  0  0  0  0  0  0  0  0  0
    1.0629    0.2597    1.9100 H   0  0  0  0  0  0  0  0  0  0  0  0
    1.9830    1.2565    0.8146 H   0  0  0  0  0  0  0  0  0  0  0  0
    3.2198   -0.7085    1.4968 H   0  0  0  0  0  0  0  0  0  0  0  0
    1.9724   -1.7648    0.9083 H   0  0  0  0  0  0  0  0  0  0  0  0
    3.1143   -2.0020   -0.9248 H   0  0  0  0  0  0  0  0  0  0  0  0
    1.8997   -0.4943   -4.0083 H   0  0  0  0  0  0  0  0  0  0  0  0
    3.5189   -0.8793   -3.5455 H   0  0  0  0  0  0  0  0  0  0  0  0
    2.2242   -2.0090   -3.1540 H   0  0  0  0  0  0  0  0  0  0  0  0
    2.1806    1.8520   -1.1936 H   0  0  0  0  0  0  0  0  0  0  0  0
    2.0868    1.6516   -2.9201 H   0  0  0  0  0  0  0  0  0  0  0  0
    4.1859    2.6728   -2.0770 H   0  0  0  0  0  0  0  0  0  0  0  0
    4.4903    1.2355   -3.0209 H   0  0  0  0  0  0  0  0  0  0  0  0
    5.8676    1.2810   -0.9640 H   0  0  0  0  0  0  0  0  0  0  0  0
    4.4403    1.4878    0.0363 H   0  0  0  0  0  0  0  0  0  0  0  0
    6.5345   -1.2660   -1.6505 H   0  0  0  0  0  0  0  0  0  0  0  0
    5.1202   -2.2519   -2.0443 H   0  0  0  0  0  0  0  0  0  0  0  0
    5.4018   -0.6884   -2.8396 H   0  0  0  0  0  0  0  0  0  0  0  0
    6.4806   -1.3376    2.7645 H   0  0  0  0  0  0  0  0  0  0  0  0
    8.4860   -0.3001   -0.1058 H   0  0  0  0  0  0  0  0  0  0  0  0
    9.7229   -2.4857   -0.1818 H   0  0  0  0  0  0  0  0  0  0  0  0
   10.8091   -1.9060    1.0746 H   0  0  0  0  0  0  0  0  0  0  0  0
   11.0949   -0.0217   -0.4646 H   0  0  0  0  0  0  0  0  0  0  0  0
   10.2788    0.2016    2.3415 H   0  0  0  0  0  0  0  0  0  0  0  0
    7.9479    1.8943    1.3051 H   0  0  0  0  0  0  0  0  0  0  0  0
    6.7020    1.1349    3.2966 H   0  0  0  0  0  0  0  0  0  0  0  0
    7.9490   -0.7639    4.3904 H   0  0  0  0  0  0  0  0  0  0  0  0
    9.1243    2.0702    3.8272 H   0  0  0  0  0  0  0  0  0  0  0  0
   10.5813    2.1889    1.1616 H   0  0  0  0  0  0  0  0  0  0  0  0
   -6.5227   -0.6806   -0.9216 H   0  0  0  0  0  0  0  0  0  0  0  0
   -5.2484   -1.6230    1.6982 H   0  0  0  0  0  0  0  0  0  0  0  0
   -6.4030   -3.3095   -0.5966 H   0  0  0  0  0  0  0  0  0  0  0  0
   -4.9907   -4.7905    0.9163 H   0  0  0  0  0  0  0  0  0  0  0  0
   -7.3513   -2.7097    1.6862 H   0  0  0  0  0  0  0  0  0  0  0  0
   -7.8617    0.4157    0.5873 H   0  0  0  0  0  0  0  0  0  0  0  0
   -8.2683    3.1971    2.9846 H   0  0  0  0  0  0  0  0  0  0  0  0
   -9.2605    0.9078    3.1370 H   0  0  0  0  0  0  0  0  0  0  0  0
  -10.4683    2.1478    2.7179 H   0  0  0  0  0  0  0  0  0  0  0  0
   -9.8448    1.0332    1.4837 H   0  0  0  0  0  0  0  0  0  0  0  0
   -9.7907    4.0081    1.0740 H   0  0  0  0  0  0  0  0  0  0  0  0
   -9.5068    2.2025   -0.5765 H   0  0  0  0  0  0  0  0  0  0  0  0
   -6.5216    2.9077   -0.6312 H   0  0  0  0  0  0  0  0  0  0  0  0
   -8.0245    0.8263   -1.8525 H   0  0  0  0  0  0  0  0  0  0  0  0
   -8.2391    3.6083   -2.2014 H   0  0  0  0  0  0  0  0  0  0  0  0
   -8.0963    5.1954    0.1301 H   0  0  0  0  0  0  0  0  0  0  0  0
  1  2  1  0
  2  3  1  0
  3  4  1  0
  4  5  1  0
  5  6  1  0
  6  7  1  0
  7  8  1  0
  8  9  1  0
  9 10  1  0
 10 11  1  0
 11 12  1  0
 11 13  1  0
 13 14  1  0
 14 15  2  0
 11 16  1  0
 16 17  1  0
 17 18  1  0
 18 19  1  0
 19 20  1  0
 19 21  1  0
 21 22  1  0
 22 23  1  0
 23 24  1  0
 24 25  1  0
 24 26  1  0
 26 27  2  0
 26 28  1  0
 28 29  1  0
 29 30  1  0
 30 31  1  0
 31 32  1  0
 32 33  1  0
 31 34  1  0
 34 35  1  0
 35 36  1  0
 36 37  1  0
 35 38  1  0
 34 39  1  0
  5 40  1  0
 40 41  1  0
 41 42  1  0
 42 43  1  0
 41 44  1  0
 40 45  1  0
 45 46  1  0
 46 47  1  0
 47 48  1  0
 48 49  1  0
 48 50  1  0
 50 51  1  0
 51 52  1  0
 52 53  1  0
 51 54  1  0
 50 55  1  0
 42  3  1  0
 52 46  1  0
 12  7  1  0
 24 18  1  0
 36 29  1  0
 14  7  1  0
 19 10  1  0
  1 56  1  0
  2 57  1  0
  2 58  1  0
  3 59  1  0
  5 60  1  0
  8 61  1  0
  8 62  1  0
  9 63  1  0
  9 64  1  0
 10 65  1  0
 12 66  1  0
 12 67  1  0
 13 68  1  0
 13 69  1  0
 15 70  1  0
 15 71  1  0
 16 72  1  0
 16 73  1  0
 17 74  1  0
 17 75  1  0
 18 76  1  0
 20 77  1  0
 20 78  1  0
 20 79  1  0
 21 80  1  0
 21 81  1  0
 22 82  1  0
 22 83  1  0
 23 84  1  0
 23 85  1  0
 25 86  1  0
 25 87  1  0
 25 88  1  0
 29 89  1  0
 31 90  1  0
 32 91  1  0
 32 92  1  0
 33 93  1  0
 34 94  1  0
 35 95  1  0
 36 96  1  0
 37 97  1  0
 38 98  1  0
 39 99  1  0
 40100  1  0
 41101  1  0
 42102  1  0
 43103  1  0
 44104  1  0
 46105  1  0
 48106  1  0
 49107  1  0
 49108  1  0
 49109  1  0
 50110  1  0
 51111  1  0
 52112  1  0
 53113  1  0
 54114  1  0
 55115  1  0
M  END
