
     RDKit          3D

 10  9  0  0  0  0  0  0  0  0999 V2000
    1.2585   -0.7296    0.2880 O   0  0  0  0  0  0  0  0  0  0  0  0
    0.5551    0.4197   -0.1872 C   0  0  0  0  0  0  0  0  0  0  0  0
   -0.9169    0.0579   -0.3410 C   0  0  0  0  0  0  0  0  0  0  0  0
   -1.4332   -0.3683    0.9187 O   0  0  0  0  0  0  0  0  0  0  0  0
    2.1897   -0.4651    0.3909 H   0  0  0  0  0  0  0  0  0  0  0  0
    0.6808    1.2163    0.5524 H   0  0  0  0  0  0  0  0  0  0  0  0
    0.9838    0.7301   -1.1441 H   0  0  0  0  0  0  0  0  0  0  0  0
   -1.5001    0.9161   -0.6856 H   0  0  0  0  0  0  0  0  0  0  0  0
   -1.0440   -0.7693   -1.0464 H   0  0  0  0  0  0  0  0  0  0  0  0
   -0.7737   -1.0079    1.2542 H   0  0  0  0  0  0  0  0  0  0  0  0
  1  2  1  0
  2  3  1  0
  3  4  1  0
  1  5  1  0
  2  6  1  0
  2  7  1  0
  3  8  1  0
  3  9  1  0
  4 10  1  0
M  END
