
     RDKit          3D

 19 19  0  0  0  0  0  0  0  0999 V2000
    0.9005    0.7043    1.6449 O   0  0  0  0  0  0  0  0  0  0  0  0
    1.4927   -0.4076    0.9657 C   0  0  0  0  0  0  0  0  0  0  0  0
    0.5825   -0.9476   -0.1446 C   0  0  0  0  0  0  0  0  0  0  0  0
   -0.6338   -1.4586    0.4502 O   0  0  0  0  0  0  0  0  0  0  0  0
   -1.7549   -0.7216   -0.0752 C   0  0  0  0  0  0  0  0  0  0  0  0
   -1.2056    0.5275   -0.7416 C   0  0  0  0  0  0  0  0  0  0  0  0
    0.1580    0.0576   -1.2180 C   0  0  0  0  0  0  0  0  0  0  0  0
    1.0691    1.1263   -1.4253 O   0  0  0  0  0  0  0  0  0  0  0  0
   -1.0655    1.6087    0.1871 O   0  0  0  0  0  0  0  0  0  0  0  0
    1.4985    0.9180    2.3854 H   0  0  0  0  0  0  0  0  0  0  0  0
    2.4568   -0.0879    0.5583 H   0  0  0  0  0  0  0  0  0  0  0  0
    1.6642   -1.1888    1.7138 H   0  0  0  0  0  0  0  0  0  0  0  0
    1.0952   -1.7943   -0.6157 H   0  0  0  0  0  0  0  0  0  0  0  0
   -2.4447   -0.5028    0.7446 H   0  0  0  0  0  0  0  0  0  0  0  0
   -2.2514   -1.3704   -0.8042 H   0  0  0  0  0  0  0  0  0  0  0  0
   -1.8421    0.8878   -1.5542 H   0  0  0  0  0  0  0  0  0  0  0  0
    0.0392   -0.4777   -2.1680 H   0  0  0  0  0  0  0  0  0  0  0  0
    0.7612    1.8508   -0.8411 H   0  0  0  0  0  0  0  0  0  0  0  0
   -0.5199    1.2763    0.9380 H   0  0  0  0  0  0  0  0  0  0  0  0
  1  2  1  0
  2  3  1  0
  3  4  1  0
  4  5  1  0
  5  6  1  0
  6  7  1  0
  7  8  1  0
  6  9  1  0
  7  3  1  0
  1 10  1  0
  2 11  1  0
  2 12  1  0
  3 13  1  0
  5 14  1  0
  5 15  1  0
  6 16  1  0
  7 17  1  0
  8 18  1  0
  9 19  1  0
M  END
