
     RDKit          3D

 26 26  0  0  0  0  0  0  0  0999 V2000
   -2.5233    0.1942    1.4147 O   0  0  0  0  0  0  0  0  0  0  0  0
   -2.2885    1.0954    0.3281 C   0  0  0  0  0  0  0  0  0  0  0  0
   -0.7796    1.1416   -0.0103 C   0  0  0  0  0  0  0  0  0  0  0  0
   -0.3001   -0.1988   -0.6314 C   0  0  0  0  0  0  0  0  0  0  0  0
   -0.7084   -1.3007    0.2400 O   0  0  0  0  0  0  0  0  0  0  0  0
    0.4629   -2.0536    0.5855 C   0  0  0  0  0  0  0  0  0  0  0  0
    1.6455   -1.1200    0.4153 C   0  0  0  0  0  0  0  0  0  0  0  0
    1.2198   -0.3199   -0.8026 C   0  0  0  0  0  0  0  0  0  0  0  0
    1.5110   -1.0837   -1.9873 O   0  0  0  0  0  0  0  0  0  0  0  0
    2.8713   -1.8053    0.1766 O   0  0  0  0  0  0  0  0  0  0  0  0
   -0.0665    1.3798    1.2174 O   0  0  0  0  0  0  0  0  0  0  0  0
   -0.5045    2.3197   -0.9477 C   0  0  0  0  0  0  0  0  0  0  0  0
   -2.1665   -0.6741    1.1248 H   0  0  0  0  0  0  0  0  0  0  0  0
   -2.6387    2.0767    0.6648 H   0  0  0  0  0  0  0  0  0  0  0  0
   -2.8928    0.7870   -0.5312 H   0  0  0  0  0  0  0  0  0  0  0  0
   -0.8133   -0.3581   -1.5877 H   0  0  0  0  0  0  0  0  0  0  0  0
    0.5288   -2.9271   -0.0731 H   0  0  0  0  0  0  0  0  0  0  0  0
    0.3723   -2.4191    1.6127 H   0  0  0  0  0  0  0  0  0  0  0  0
    1.7565   -0.4675    1.2876 H   0  0  0  0  0  0  0  0  0  0  0  0
    1.7584    0.6247   -0.8997 H   0  0  0  0  0  0  0  0  0  0  0  0
    2.3749   -1.5083   -1.8020 H   0  0  0  0  0  0  0  0  0  0  0  0
    3.1007   -2.2767    0.9975 H   0  0  0  0  0  0  0  0  0  0  0  0
   -0.6260    0.9872    1.9209 H   0  0  0  0  0  0  0  0  0  0  0  0
   -0.9957    2.1845   -1.9166 H   0  0  0  0  0  0  0  0  0  0  0  0
    0.5670    2.4654   -1.1157 H   0  0  0  0  0  0  0  0  0  0  0  0
   -0.8651    3.2567   -0.5071 H   0  0  0  0  0  0  0  0  0  0  0  0
  1  2  1  0
  2  3  1  0
  3  4  1  0
  4  5  1  0
  5  6  1  0
  6  7  1  0
  7  8  1  0
  8  9  1  0
  7 10  1  0
  3 11  1  0
  3 12  1  0
  8  4  1  0
  1 13  1  0
  2 14  1  0
  2 15  1  0
  4 16  1  0
  6 17  1  0
  6 18  1  0
  7 19  1  0
  8 20  1  0
  9 21  1  0
 10 22  1  0
 11 23  1  0
 12 24  1  0
 12 25  1  0
 12 26  1  0
M  END
