
     RDKit          3D

 23 23  0  0  0  0  0  0  0  0999 V2000
    3.1258    0.3800   -0.3083 O   0  0  0  0  0  0  0  0  0  0  0  0
    2.3846   -0.7180   -0.8460 C   0  0  0  0  0  0  0  0  0  0  0  0
    0.8807   -0.5075   -0.6240 C   0  0  0  0  0  0  0  0  0  0  0  0
    0.5601    0.8048   -1.1345 O   0  0  0  0  0  0  0  0  0  0  0  0
   -0.8343    1.0869   -1.0350 C   0  0  0  0  0  0  0  0  0  0  0  0
   -1.2854    1.1089    0.4262 C   0  0  0  0  0  0  0  0  0  0  0  0
   -0.9538   -0.2252    1.0981 C   0  0  0  0  0  0  0  0  0  0  0  0
    0.5068   -0.6291    0.8660 C   0  0  0  0  0  0  0  0  0  0  0  0
    0.6838   -1.9780    1.3164 O   0  0  0  0  0  0  0  0  0  0  0  0
   -1.8072   -1.2611    0.5658 O   0  0  0  0  0  0  0  0  0  0  0  0
   -2.6971    1.3261    0.5167 O   0  0  0  0  0  0  0  0  0  0  0  0
    2.6952    1.1776   -0.6720 H   0  0  0  0  0  0  0  0  0  0  0  0
    2.6041   -0.7526   -1.9184 H   0  0  0  0  0  0  0  0  0  0  0  0
    2.7437   -1.6451   -0.3903 H   0  0  0  0  0  0  0  0  0  0  0  0
    0.3472   -1.2657   -1.2119 H   0  0  0  0  0  0  0  0  0  0  0  0
   -1.4083    0.3650   -1.6291 H   0  0  0  0  0  0  0  0  0  0  0  0
   -1.0144    2.0671   -1.4899 H   0  0  0  0  0  0  0  0  0  0  0  0
   -0.7689    1.9135    0.9628 H   0  0  0  0  0  0  0  0  0  0  0  0
   -1.1760   -0.1874    2.1706 H   0  0  0  0  0  0  0  0  0  0  0  0
    1.1503    0.0231    1.4676 H   0  0  0  0  0  0  0  0  0  0  0  0
   -0.1555   -2.4350    1.0979 H   0  0  0  0  0  0  0  0  0  0  0  0
   -2.7067   -0.8717    0.5901 H   0  0  0  0  0  0  0  0  0  0  0  0
   -2.8748    2.2237    0.1811 H   0  0  0  0  0  0  0  0  0  0  0  0
  1  2  1  0
  2  3  1  0
  3  4  1  0
  4  5  1  0
  5  6  1  0
  6  7  1  0
  7  8  1  0
  8  9  1  0
  7 10  1  0
  6 11  1  0
  8  3  1  0
  1 12  1  0
  2 13  1  0
  2 14  1  0
  3 15  1  0
  5 16  1  0
  5 17  1  0
  6 18  1  0
  7 19  1  0
  8 20  1  0
  9 21  1  0
 10 22  1  0
 11 23  1  0
M  END
