
     RDKit          3D

 23 23  0  0  0  0  0  0  0  0999 V2000
   -1.9791   -1.1160    0.7254 O   0  0  0  0  0  0  0  0  0  0  0  0
   -1.3931   -0.6530   -0.4974 C   0  0  0  0  0  0  0  0  0  0  0  0
   -0.1249   -1.4541   -0.7686 C   0  0  0  0  0  0  0  0  0  0  0  0
    0.9488   -1.1834    0.2885 C   0  0  0  0  0  0  0  0  0  0  0  0
    2.1575   -1.8339   -0.1258 O   0  0  0  0  0  0  0  0  0  0  0  0
    1.2410    0.3165    0.4342 C   0  0  0  0  0  0  0  0  0  0  0  0
   -0.0308    1.1264    0.6927 C   0  0  0  0  0  0  0  0  0  0  0  0
   -1.1044    0.8473   -0.3708 C   0  0  0  0  0  0  0  0  0  0  0  0
   -2.3180    1.5178    0.0112 O   0  0  0  0  0  0  0  0  0  0  0  0
    0.2725    2.5325    0.6597 O   0  0  0  0  0  0  0  0  0  0  0  0
    1.8488    0.8090   -0.7771 O   0  0  0  0  0  0  0  0  0  0  0  0
   -2.7191   -0.4956    0.8949 H   0  0  0  0  0  0  0  0  0  0  0  0
   -2.1315   -0.8308   -1.2871 H   0  0  0  0  0  0  0  0  0  0  0  0
    0.2619   -1.2202   -1.7684 H   0  0  0  0  0  0  0  0  0  0  0  0
   -0.3479   -2.5284   -0.7711 H   0  0  0  0  0  0  0  0  0  0  0  0
    0.6384   -1.6075    1.2508 H   0  0  0  0  0  0  0  0  0  0  0  0
    2.6664   -2.0375    0.6800 H   0  0  0  0  0  0  0  0  0  0  0  0
    1.9785    0.4919    1.2252 H   0  0  0  0  0  0  0  0  0  0  0  0
   -0.4249    0.9140    1.6931 H   0  0  0  0  0  0  0  0  0  0  0  0
   -0.8034    1.2610   -1.3406 H   0  0  0  0  0  0  0  0  0  0  0  0
   -2.0385    2.4222    0.2622 H   0  0  0  0  0  0  0  0  0  0  0  0
    0.9493    2.6295   -0.0435 H   0  0  0  0  0  0  0  0  0  0  0  0
    2.4524    0.0923   -1.0673 H   0  0  0  0  0  0  0  0  0  0  0  0
  1  2  1  0
  2  3  1  0
  3  4  1  0
  4  5  1  0
  4  6  1  0
  6  7  1  0
  7  8  1  0
  8  9  1  0
  7 10  1  0
  6 11  1  0
  8  2  1  0
  1 12  1  0
  2 13  1  0
  3 14  1  0
  3 15  1  0
  4 16  1  0
  5 17  1  0
  6 18  1  0
  7 19  1  0
  8 20  1  0
  9 21  1  0
 10 22  1  0
 11 23  1  0
M  END
