
     RDKit          3D

 24 24  0  0  0  0  0  0  0  0999 V2000
   -0.6940    2.0987    0.4236 O   0  0  0  0  0  0  0  0  0  0  0  0
   -0.6160    1.2402   -0.7292 C   0  0  0  0  0  0  0  0  0  0  0  0
   -1.4898    0.0085   -0.4698 C   0  0  0  0  0  0  0  0  0  0  0  0
   -2.8097    0.4179   -0.0790 O   0  0  0  0  0  0  0  0  0  0  0  0
   -0.9160   -0.8719    0.6489 C   0  0  0  0  0  0  0  0  0  0  0  0
   -1.6985   -2.0707    0.7714 O   0  0  0  0  0  0  0  0  0  0  0  0
    0.5316   -1.2668    0.3512 C   0  0  0  0  0  0  0  0  0  0  0  0
    1.4044   -0.0297    0.1367 C   0  0  0  0  0  0  0  0  0  0  0  0
    0.8447    0.8558   -0.9836 C   0  0  0  0  0  0  0  0  0  0  0  0
    1.6265    2.0580   -1.0610 O   0  0  0  0  0  0  0  0  0  0  0  0
    2.7363   -0.4301   -0.2235 O   0  0  0  0  0  0  0  0  0  0  0  0
    1.0694   -2.0277    1.4430 O   0  0  0  0  0  0  0  0  0  0  0  0
   -0.0070    2.7827    0.2680 H   0  0  0  0  0  0  0  0  0  0  0  0
   -1.0163    1.8266   -1.5637 H   0  0  0  0  0  0  0  0  0  0  0  0
   -1.6000   -0.5820   -1.3867 H   0  0  0  0  0  0  0  0  0  0  0  0
   -2.6805    1.2262    0.4616 H   0  0  0  0  0  0  0  0  0  0  0  0
   -0.9876   -0.3714    1.6222 H   0  0  0  0  0  0  0  0  0  0  0  0
   -2.6310   -1.7708    0.7522 H   0  0  0  0  0  0  0  0  0  0  0  0
    0.5813   -1.9278   -0.5230 H   0  0  0  0  0  0  0  0  0  0  0  0
    1.5087    0.5399    1.0683 H   0  0  0  0  0  0  0  0  0  0  0  0
    0.9395    0.3469   -1.9503 H   0  0  0  0  0  0  0  0  0  0  0  0
    2.5579    1.7525   -1.0665 H   0  0  0  0  0  0  0  0  0  0  0  0
    2.9728   -1.1235    0.4276 H   0  0  0  0  0  0  0  0  0  0  0  0
    0.3731   -2.6816    1.6616 H   0  0  0  0  0  0  0  0  0  0  0  0
  1  2  1  0
  2  3  1  0
  3  4  1  0
  3  5  1  0
  5  6  1  0
  5  7  1  0
  7  8  1  0
  8  9  1  0
  9 10  1  0
  8 11  1  0
  7 12  1  0
  9  2  1  0
  1 13  1  0
  2 14  1  0
  3 15  1  0
  4 16  1  0
  5 17  1  0
  6 18  1  0
  7 19  1  0
  8 20  1  0
  9 21  1  0
 10 22  1  0
 11 23  1  0
 12 24  1  0
M  END
