
     RDKit          3D

 12 11  0  0  0  0  0  0  0  0999 V2000
    2.4458    0.3017   -0.1305 O   0  0  0  0  0  0  0  0  0  0  0  0
    1.2757   -0.4996   -0.1001 C   0  0  0  0  0  0  0  0  0  0  0  0
    0.0107    0.3356   -0.2150 C   0  0  0  0  0  0  0  0  0  0  0  0
    0.0487    1.5339   -0.5099 O   0  0  0  0  0  0  0  0  0  0  0  0
   -1.3037   -0.3803    0.0520 C   0  0  0  0  0  0  0  0  0  0  0  0
   -2.4231    0.4122   -0.3099 O   0  0  0  0  0  0  0  0  0  0  0  0
    2.2113    1.1206   -0.6124 H   0  0  0  0  0  0  0  0  0  0  0  0
    1.2629   -1.0480    0.8455 H   0  0  0  0  0  0  0  0  0  0  0  0
    1.3112   -1.2039   -0.9355 H   0  0  0  0  0  0  0  0  0  0  0  0
   -1.3689   -0.6133    1.1181 H   0  0  0  0  0  0  0  0  0  0  0  0
   -1.3377   -1.3043   -0.5311 H   0  0  0  0  0  0  0  0  0  0  0  0
   -2.1330    1.3455   -0.2594 H   0  0  0  0  0  0  0  0  0  0  0  0
  1  2  1  0
  2  3  1  0
  3  4  2  0
  3  5  1  0
  5  6  1  0
  1  7  1  0
  2  8  1  0
  2  9  1  0
  5 10  1  0
  5 11  1  0
  6 12  1  0
M  END
