
     RDKit          3D

 11 10  0  0  0  0  0  0  0  0999 V2000
    1.5194    0.1938   -0.1371 C   0  0  0  0  0  0  0  0  0  0  0  0
    0.0995    0.3977    0.3133 C   0  0  0  0  0  0  0  0  0  0  0  0
   -0.2107    1.2681    1.1291 O   0  0  0  0  0  0  0  0  0  0  0  0
   -0.9483   -0.5383   -0.2727 C   0  0  0  0  0  0  0  0  0  0  0  0
   -2.2601   -0.1865    0.1398 O   0  0  0  0  0  0  0  0  0  0  0  0
    1.8505   -0.8098    0.1403 H   0  0  0  0  0  0  0  0  0  0  0  0
    1.5826    0.3264   -1.2199 H   0  0  0  0  0  0  0  0  0  0  0  0
    2.1686    0.9283    0.3472 H   0  0  0  0  0  0  0  0  0  0  0  0
   -0.7404   -1.5580    0.0620 H   0  0  0  0  0  0  0  0  0  0  0  0
   -0.9068   -0.4890   -1.3638 H   0  0  0  0  0  0  0  0  0  0  0  0
   -2.1543    0.4672    0.8619 H   0  0  0  0  0  0  0  0  0  0  0  0
  1  2  1  0
  2  3  2  0
  2  4  1  0
  4  5  1  0
  1  6  1  0
  1  7  1  0
  1  8  1  0
  4  9  1  0
  4 10  1  0
  5 11  1  0
M  END
