
     RDKit          3D

 15 14  0  0  0  0  0  0  0  0999 V2000
    2.2315   -1.1248    0.0785 C   0  0  0  0  0  0  0  0  0  0  0  0
    1.1076   -0.2592    0.1838 O   0  0  0  0  0  0  0  0  0  0  0  0
    0.2784   -0.3376   -0.9674 C   0  0  0  0  0  0  0  0  0  0  0  0
   -0.8829    0.6338   -0.8582 C   0  0  0  0  0  0  0  0  0  0  0  0
   -1.2986    1.2688   -1.8326 O   0  0  0  0  0  0  0  0  0  0  0  0
   -1.5562    0.7561    0.5012 C   0  0  0  0  0  0  0  0  0  0  0  0
   -2.8090    1.4223    0.4060 O   0  0  0  0  0  0  0  0  0  0  0  0
    1.9056   -2.1647   -0.0202 H   0  0  0  0  0  0  0  0  0  0  0  0
    2.8257   -1.0295    0.9912 H   0  0  0  0  0  0  0  0  0  0  0  0
    2.8543   -0.8414   -0.7754 H   0  0  0  0  0  0  0  0  0  0  0  0
    0.8590   -0.0798   -1.8600 H   0  0  0  0  0  0  0  0  0  0  0  0
   -0.1315   -1.3479   -1.0701 H   0  0  0  0  0  0  0  0  0  0  0  0
   -0.9088    1.3263    1.1724 H   0  0  0  0  0  0  0  0  0  0  0  0
   -1.7345   -0.2411    0.9118 H   0  0  0  0  0  0  0  0  0  0  0  0
   -2.7405    2.0187   -0.3666 H   0  0  0  0  0  0  0  0  0  0  0  0
  1  2  1  0
  2  3  1  0
  3  4  1  0
  4  5  2  0
  4  6  1  0
  6  7  1  0
  1  8  1  0
  1  9  1  0
  1 10  1  0
  3 11  1  0
  3 12  1  0
  6 13  1  0
  6 14  1  0
  7 15  1  0
M  END
