
     RDKit          3D

 87 90  0  0  0  0  0  0  0  0999 V2000
   -8.8151   -1.3686    2.6629 O   0  0  0  0  0  0  0  0  0  0  0  0
   -8.7389   -2.2848    1.5714 C   0  0  0  0  0  0  0  0  0  0  0  0
   -8.0360   -1.6167    0.3979 C   0  0  0  0  0  0  0  0  0  0  0  0
   -6.6652   -1.3521    0.7632 O   0  0  0  0  0  0  0  0  0  0  0  0
   -5.8760   -1.3150   -0.4520 C   0  0  0  0  0  0  0  0  0  0  0  0
   -6.8191   -1.7618   -1.6062 C   0  0  0  0  0  0  0  0  0  0  0  0
   -7.9764   -2.4413   -0.8828 C   0  0  0  0  0  0  0  0  0  0  0  0
   -7.6467   -3.8235   -0.7064 O   0  0  0  0  0  0  0  0  0  0  0  0
   -6.2085   -2.6056   -2.5849 O   0  0  0  0  0  0  0  0  0  0  0  0
   -4.6333   -2.2332   -0.2850 C   0  0  0  0  0  0  0  0  0  0  0  0
   -4.9555   -3.6090   -0.0345 O   0  0  0  0  0  0  0  0  0  0  0  0
   -5.5539    0.0510   -0.7414 O   0  0  0  0  0  0  0  0  0  0  0  0
   -4.6410    0.6700    0.1685 C   0  0  0  0  0  0  0  0  0  0  0  0
   -3.3216    0.5156   -0.3530 O   0  0  0  0  0  0  0  0  0  0  0  0
   -2.6697    1.7345   -0.7342 C   0  0  0  0  0  0  0  0  0  0  0  0
   -1.2605    1.4109   -1.2595 C   0  0  0  0  0  0  0  0  0  0  0  0
   -0.3477    1.1937   -0.1787 O   0  0  0  0  0  0  0  0  0  0  0  0
    1.0166    1.4022   -0.5487 C   0  0  0  0  0  0  0  0  0  0  0  0
    1.8125    0.4283    0.1258 O   0  0  0  0  0  0  0  0  0  0  0  0
    3.2106    0.5259   -0.1892 C   0  0  0  0  0  0  0  0  0  0  0  0
    3.9404   -0.6139    0.5251 C   0  0  0  0  0  0  0  0  0  0  0  0
    5.2793   -0.7178    0.0305 O   0  0  0  0  0  0  0  0  0  0  0  0
    5.9852   -1.8064    0.6433 C   0  0  0  0  0  0  0  0  0  0  0  0
    6.6524   -2.5575   -0.3756 O   0  0  0  0  0  0  0  0  0  0  0  0
    7.6489   -1.7924   -1.0889 C   0  0  0  0  0  0  0  0  0  0  0  0
    8.2740   -2.7431   -2.1145 C   0  0  0  0  0  0  0  0  0  0  0  0
    7.2714   -3.1490   -3.0503 O   0  0  0  0  0  0  0  0  0  0  0  0
    8.7076   -1.1887   -0.1506 C   0  0  0  0  0  0  0  0  0  0  0  0
    8.0413   -0.4166    0.9935 C   0  0  0  0  0  0  0  0  0  0  0  0
    6.9995   -1.3011    1.6873 C   0  0  0  0  0  0  0  0  0  0  0  0
    6.3738   -0.5670    2.7477 O   0  0  0  0  0  0  0  0  0  0  0  0
    9.0448   -0.0330    1.9562 O   0  0  0  0  0  0  0  0  0  0  0  0
    9.5381   -2.2184    0.4075 O   0  0  0  0  0  0  0  0  0  0  0  0
    3.7810    1.9056    0.1904 C   0  0  0  0  0  0  0  0  0  0  0  0
    2.9341    3.0059   -0.4453 C   0  0  0  0  0  0  0  0  0  0  0  0
    1.4493    2.8177   -0.1224 C   0  0  0  0  0  0  0  0  0  0  0  0
    0.7266    3.8636   -0.7925 O   0  0  0  0  0  0  0  0  0  0  0  0
    3.3733    4.2852    0.0412 O   0  0  0  0  0  0  0  0  0  0  0  0
    3.7735    2.1063    1.6148 O   0  0  0  0  0  0  0  0  0  0  0  0
   -2.6368    2.6929    0.4668 C   0  0  0  0  0  0  0  0  0  0  0  0
   -4.0631    3.0277    0.9583 C   0  0  0  0  0  0  0  0  0  0  0  0
   -5.1289    2.1308    0.3278 C   0  0  0  0  0  0  0  0  0  0  0  0
   -5.5001    2.6792   -0.9555 O   0  0  0  0  0  0  0  0  0  0  0  0
   -4.1166    2.8840    2.3896 O   0  0  0  0  0  0  0  0  0  0  0  0
   -1.9089    3.8908    0.1402 O   0  0  0  0  0  0  0  0  0  0  0  0
   -7.8904   -1.2007    2.9280 H   0  0  0  0  0  0  0  0  0  0  0  0
   -8.1936   -3.1660    1.9211 H   0  0  0  0  0  0  0  0  0  0  0  0
   -9.7571   -2.5783    1.3040 H   0  0  0  0  0  0  0  0  0  0  0  0
   -8.4950   -0.6378    0.2006 H   0  0  0  0  0  0  0  0  0  0  0  0
   -7.1973   -0.8776   -2.1366 H   0  0  0  0  0  0  0  0  0  0  0  0
   -8.9042   -2.3918   -1.4561 H   0  0  0  0  0  0  0  0  0  0  0  0
   -8.3504   -4.2534   -0.1865 H   0  0  0  0  0  0  0  0  0  0  0  0
   -6.8223   -3.3495   -2.7563 H   0  0  0  0  0  0  0  0  0  0  0  0
   -4.0341   -1.9195    0.5757 H   0  0  0  0  0  0  0  0  0  0  0  0
   -3.9824   -2.1735   -1.1654 H   0  0  0  0  0  0  0  0  0  0  0  0
   -5.6530   -3.8586   -0.6733 H   0  0  0  0  0  0  0  0  0  0  0  0
   -4.6616    0.1953    1.1567 H   0  0  0  0  0  0  0  0  0  0  0  0
   -3.2089    2.1727   -1.5840 H   0  0  0  0  0  0  0  0  0  0  0  0
   -1.2828    0.5019   -1.8683 H   0  0  0  0  0  0  0  0  0  0  0  0
   -0.9178    2.2446   -1.8855 H   0  0  0  0  0  0  0  0  0  0  0  0
    1.1313    1.2588   -1.6314 H   0  0  0  0  0  0  0  0  0  0  0  0
    3.3324    0.3847   -1.2715 H   0  0  0  0  0  0  0  0  0  0  0  0
    3.4063   -1.5519    0.3278 H   0  0  0  0  0  0  0  0  0  0  0  0
    3.9393   -0.4629    1.6108 H   0  0  0  0  0  0  0  0  0  0  0  0
    5.2825   -2.4950    1.1314 H   0  0  0  0  0  0  0  0  0  0  0  0
    7.1267   -0.9905   -1.6253 H   0  0  0  0  0  0  0  0  0  0  0  0
    9.0827   -2.2639   -2.6734 H   0  0  0  0  0  0  0  0  0  0  0  0
    8.6600   -3.6502   -1.6394 H   0  0  0  0  0  0  0  0  0  0  0  0
    6.5013   -3.4014   -2.5052 H   0  0  0  0  0  0  0  0  0  0  0  0
    9.3829   -0.5248   -0.7042 H   0  0  0  0  0  0  0  0  0  0  0  0
    7.5721    0.5058    0.6325 H   0  0  0  0  0  0  0  0  0  0  0  0
    7.4968   -2.1617    2.1529 H   0  0  0  0  0  0  0  0  0  0  0  0
    7.1049   -0.1562    3.2502 H   0  0  0  0  0  0  0  0  0  0  0  0
    9.5531    0.6949    1.5548 H   0  0  0  0  0  0  0  0  0  0  0  0
    9.9218   -1.8513    1.2279 H   0  0  0  0  0  0  0  0  0  0  0  0
    4.8252    2.0016   -0.1307 H   0  0  0  0  0  0  0  0  0  0  0  0
    3.0819    3.0173   -1.5325 H   0  0  0  0  0  0  0  0  0  0  0  0
    1.2781    2.9651    0.9497 H   0  0  0  0  0  0  0  0  0  0  0  0
   -0.2041    3.7995   -0.4802 H   0  0  0  0  0  0  0  0  0  0  0  0
    2.6799    4.9093   -0.2569 H   0  0  0  0  0  0  0  0  0  0  0  0
    3.9017    3.0673    1.7394 H   0  0  0  0  0  0  0  0  0  0  0  0
   -2.0936    2.2188    1.2942 H   0  0  0  0  0  0  0  0  0  0  0  0
   -4.3042    4.0758    0.7424 H   0  0  0  0  0  0  0  0  0  0  0  0
   -6.0472    2.1305    0.9261 H   0  0  0  0  0  0  0  0  0  0  0  0
   -5.9045    1.9284   -1.4382 H   0  0  0  0  0  0  0  0  0  0  0  0
   -3.5828    3.5920    2.7869 H   0  0  0  0  0  0  0  0  0  0  0  0
   -2.0879    4.5474    0.8372 H   0  0  0  0  0  0  0  0  0  0  0  0
  1  2  1  0
  2  3  1  0
  3  4  1  0
  4  5  1  0
  5  6  1  0
  6  7  1  0
  7  8  1  0
  6  9  1  0
  5 10  1  0
 10 11  1  0
  5 12  1  0
 12 13  1  0
 13 14  1  0
 14 15  1  0
 15 16  1  0
 16 17  1  0
 17 18  1  0
 18 19  1  0
 19 20  1  0
 20 21  1  0
 21 22  1  0
 22 23  1  0
 23 24  1  0
 24 25  1  0
 25 26  1  0
 26 27  1  0
 25 28  1  0
 28 29  1  0
 29 30  1  0
 30 31  1  0
 29 32  1  0
 28 33  1  0
 20 34  1  0
 34 35  1  0
 35 36  1  0
 36 37  1  0
 35 38  1  0
 34 39  1  0
 15 40  1  0
 40 41  1  0
 41 42  1  0
 42 43  1  0
 41 44  1  0
 40 45  1  0
  7  3  1  0
 42 13  1  0
 36 18  1  0
 30 23  1  0
  1 46  1  0
  2 47  1  0
  2 48  1  0
  3 49  1  0
  6 50  1  0
  7 51  1  0
  8 52  1  0
  9 53  1  0
 10 54  1  0
 10 55  1  0
 11 56  1  0
 13 57  1  0
 15 58  1  0
 16 59  1  0
 16 60  1  0
 18 61  1  0
 20 62  1  0
 21 63  1  0
 21 64  1  0
 23 65  1  0
 25 66  1  0
 26 67  1  0
 26 68  1  0
 27 69  1  0
 28 70  1  0
 29 71  1  0
 30 72  1  0
 31 73  1  0
 32 74  1  0
 33 75  1  0
 34 76  1  0
 35 77  1  0
 36 78  1  0
 37 79  1  0
 38 80  1  0
 39 81  1  0
 40 82  1  0
 41 83  1  0
 42 84  1  0
 43 85  1  0
 44 86  1  0
 45 87  1  0
M  END
