
     RDKit          3D

120126  0  0  0  0  0  0  0  0999 V2000
    7.5840    2.2006   -0.7605 O   0  0  0  0  0  0  0  0  0  0  0  0
    6.4430    1.6914   -1.4832 C   0  0  0  0  0  0  0  0  0  0  0  0
    5.5470    0.9088   -0.5270 C   0  0  0  0  0  0  0  0  0  0  0  0
    6.3339   -0.2014   -0.0653 O   0  0  0  0  0  0  0  0  0  0  0  0
    6.0704   -0.5823    1.2895 C   0  0  0  0  0  0  0  0  0  0  0  0
    5.2254   -1.7306    1.2269 O   0  0  0  0  0  0  0  0  0  0  0  0
    5.3617   -2.6590    2.3040 C   0  0  0  0  0  0  0  0  0  0  0  0
    4.7460   -2.2148    3.6334 C   0  0  0  0  0  0  0  0  0  0  0  0
    4.0529   -2.8972    4.3743 O   0  0  0  0  0  0  0  0  0  0  0  0
    5.0233   -0.9361    3.9678 O   0  0  0  0  0  0  0  0  0  0  0  0
    6.8070   -3.1890    2.4452 C   0  0  0  0  0  0  0  0  0  0  0  0
    7.8304   -2.2906    1.7433 C   0  0  0  0  0  0  0  0  0  0  0  0
    7.4550   -0.8266    1.9405 C   0  0  0  0  0  0  0  0  0  0  0  0
    8.5078   -0.0075    1.3935 O   0  0  0  0  0  0  0  0  0  0  0  0
    9.1377   -2.5445    2.2884 O   0  0  0  0  0  0  0  0  0  0  0  0
    7.1873   -3.3569    3.8147 O   0  0  0  0  0  0  0  0  0  0  0  0
    4.3003    0.4273   -1.3008 C   0  0  0  0  0  0  0  0  0  0  0  0
    4.5085    0.3439   -2.7168 O   0  0  0  0  0  0  0  0  0  0  0  0
    5.7917   -0.1494   -3.1063 C   0  0  0  0  0  0  0  0  0  0  0  0
    6.9331    0.7724   -2.6129 C   0  0  0  0  0  0  0  0  0  0  0  0
    7.4279    1.6238   -3.6660 O   0  0  0  0  0  0  0  0  0  0  0  0
    6.0794   -1.6146   -2.7536 C   0  0  0  0  0  0  0  0  0  0  0  0
    7.1773   -2.1497   -2.7089 O   0  0  0  0  0  0  0  0  0  0  0  0
    4.9638   -2.3476   -2.5458 O   0  0  0  0  0  0  0  0  0  0  0  0
    3.2913    1.4064   -1.0492 O   0  0  0  0  0  0  0  0  0  0  0  0
    1.9524    0.9688   -1.3084 C   0  0  0  0  0  0  0  0  0  0  0  0
    1.4511    1.6986   -2.5565 C   0  0  0  0  0  0  0  0  0  0  0  0
   -0.0455    1.5050   -2.8197 C   0  0  0  0  0  0  0  0  0  0  0  0
   -0.9584    1.8713   -1.6122 C   0  0  0  0  0  0  0  0  0  0  0  0
   -0.4533    1.0834   -0.3466 C   0  0  0  0  0  0  0  0  0  0  0  0
    1.1001    1.2392   -0.0315 C   0  0  0  0  0  0  0  0  0  0  0  0
    1.4251    2.6231    0.5957 C   0  0  0  0  0  0  0  0  0  0  0  0
    1.5596    0.2262    1.0624 C   0  0  0  0  0  0  0  0  0  0  0  0
   -0.8302   -0.4104   -0.4761 C   0  0  0  0  0  0  0  0  0  0  0  0
   -2.3235   -0.6417   -0.6035 C   0  0  0  0  0  0  0  0  0  0  0  0
   -3.0084    0.0492   -1.8073 C   0  0  0  0  0  0  0  0  0  0  0  0
   -2.4993    1.5550   -1.9477 C   0  0  0  0  0  0  0  0  0  0  0  0
   -3.4801    2.5456   -1.2546 C   0  0  0  0  0  0  0  0  0  0  0  0
   -3.5631    3.7382   -1.5513 O   0  0  0  0  0  0  0  0  0  0  0  0
   -4.3850    2.0551   -0.2023 C   0  0  0  0  0  0  0  0  0  0  0  0
   -4.9226    0.8345   -0.3396 C   0  0  0  0  0  0  0  0  0  0  0  0
   -4.6117    0.0133   -1.6045 C   0  0  0  0  0  0  0  0  0  0  0  0
   -5.3313    0.6251   -2.8472 C   0  0  0  0  0  0  0  0  0  0  0  0
   -5.2032   -1.4229   -1.4194 C   0  0  0  0  0  0  0  0  0  0  0  0
   -6.6907   -1.4225   -1.0087 C   0  0  0  0  0  0  0  0  0  0  0  0
   -7.0116   -0.5253    0.2295 C   0  0  0  0  0  0  0  0  0  0  0  0
   -5.7102    0.1327    0.7662 C   0  0  0  0  0  0  0  0  0  0  0  0
   -5.9576    0.9418    2.0612 C   0  0  0  0  0  0  0  0  0  0  0  0
   -6.6023    0.0955    3.1910 C   0  0  0  0  0  0  0  0  0  0  0  0
   -7.0059    1.0411    4.3384 C   0  0  0  0  0  0  0  0  0  0  0  0
   -7.8449   -0.6583    2.6716 C   0  0  0  0  0  0  0  0  0  0  0  0
   -7.5991   -1.4105    1.3606 C   0  0  0  0  0  0  0  0  0  0  0  0
   -5.5725   -0.8789    3.7653 C   0  0  0  0  0  0  0  0  0  0  0  0
   -4.3822   -0.9332    3.4980 O   0  0  0  0  0  0  0  0  0  0  0  0
   -6.0833   -1.7200    4.6861 O   0  0  0  0  0  0  0  0  0  0  0  0
   -8.0711    0.5265   -0.1811 C   0  0  0  0  0  0  0  0  0  0  0  0
   -2.6465   -0.7481   -3.0917 C   0  0  0  0  0  0  0  0  0  0  0  0
   -0.8112    3.4095   -1.4329 C   0  0  0  0  0  0  0  0  0  0  0  0
    8.1279    2.6565   -1.4345 H   0  0  0  0  0  0  0  0  0  0  0  0
    5.9124    2.5636   -1.8867 H   0  0  0  0  0  0  0  0  0  0  0  0
    5.2807    1.5597    0.3154 H   0  0  0  0  0  0  0  0  0  0  0  0
    5.5563    0.2244    1.8252 H   0  0  0  0  0  0  0  0  0  0  0  0
    4.7409   -3.5116    2.0016 H   0  0  0  0  0  0  0  0  0  0  0  0
    4.6069   -0.8464    4.8529 H   0  0  0  0  0  0  0  0  0  0  0  0
    6.8728   -4.1877    1.9992 H   0  0  0  0  0  0  0  0  0  0  0  0
    7.8777   -2.5240    0.6728 H   0  0  0  0  0  0  0  0  0  0  0  0
    7.4171   -0.6037    3.0116 H   0  0  0  0  0  0  0  0  0  0  0  0
    8.0782    0.6825    0.8373 H   0  0  0  0  0  0  0  0  0  0  0  0
    9.6792   -1.7830    1.9824 H   0  0  0  0  0  0  0  0  0  0  0  0
    8.1706   -3.4395    3.7923 H   0  0  0  0  0  0  0  0  0  0  0  0
    3.9763   -0.5476   -0.9188 H   0  0  0  0  0  0  0  0  0  0  0  0
    5.7840   -0.1325   -4.2050 H   0  0  0  0  0  0  0  0  0  0  0  0
    7.8088    0.2045   -2.2785 H   0  0  0  0  0  0  0  0  0  0  0  0
    7.9011    1.0575   -4.3054 H   0  0  0  0  0  0  0  0  0  0  0  0
    5.2978   -3.2493   -2.3531 H   0  0  0  0  0  0  0  0  0  0  0  0
    1.9329   -0.1088   -1.5237 H   0  0  0  0  0  0  0  0  0  0  0  0
    2.0059    1.3187   -3.4262 H   0  0  0  0  0  0  0  0  0  0  0  0
    1.7174    2.7605   -2.5184 H   0  0  0  0  0  0  0  0  0  0  0  0
   -0.3279    2.0998   -3.6960 H   0  0  0  0  0  0  0  0  0  0  0  0
   -0.1820    0.4661   -3.1144 H   0  0  0  0  0  0  0  0  0  0  0  0
   -1.0014    1.4697    0.5254 H   0  0  0  0  0  0  0  0  0  0  0  0
    0.6509    2.9252    1.3113 H   0  0  0  0  0  0  0  0  0  0  0  0
    2.3728    2.6053    1.1466 H   0  0  0  0  0  0  0  0  0  0  0  0
    1.5515    3.4128   -0.1397 H   0  0  0  0  0  0  0  0  0  0  0  0
    0.9162    0.2830    1.9458 H   0  0  0  0  0  0  0  0  0  0  0  0
    1.5609   -0.8059    0.6966 H   0  0  0  0  0  0  0  0  0  0  0  0
    2.5881    0.4229    1.3915 H   0  0  0  0  0  0  0  0  0  0  0  0
   -0.5328   -0.9550    0.4262 H   0  0  0  0  0  0  0  0  0  0  0  0
   -0.2957   -0.8880   -1.3023 H   0  0  0  0  0  0  0  0  0  0  0  0
   -2.4847   -1.7252   -0.6539 H   0  0  0  0  0  0  0  0  0  0  0  0
   -2.7679   -0.3193    0.3438 H   0  0  0  0  0  0  0  0  0  0  0  0
   -2.6288    1.8210   -3.0097 H   0  0  0  0  0  0  0  0  0  0  0  0
   -4.5571    2.7258    0.6291 H   0  0  0  0  0  0  0  0  0  0  0  0
   -4.8662    1.5381   -3.2216 H   0  0  0  0  0  0  0  0  0  0  0  0
   -6.3731    0.8788   -2.6378 H   0  0  0  0  0  0  0  0  0  0  0  0
   -5.3414   -0.0860   -3.6811 H   0  0  0  0  0  0  0  0  0  0  0  0
   -4.6416   -1.9932   -0.6691 H   0  0  0  0  0  0  0  0  0  0  0  0
   -5.1198   -1.9975   -2.3510 H   0  0  0  0  0  0  0  0  0  0  0  0
   -6.9954   -2.4599   -0.8240 H   0  0  0  0  0  0  0  0  0  0  0  0
   -7.2889   -1.1053   -1.8717 H   0  0  0  0  0  0  0  0  0  0  0  0
   -5.0486   -0.6869    1.0780 H   0  0  0  0  0  0  0  0  0  0  0  0
   -5.0052    1.3488    2.4266 H   0  0  0  0  0  0  0  0  0  0  0  0
   -6.5892    1.8108    1.8384 H   0  0  0  0  0  0  0  0  0  0  0  0
   -6.1311    1.5635    4.7452 H   0  0  0  0  0  0  0  0  0  0  0  0
   -7.7222    1.7980    3.9986 H   0  0  0  0  0  0  0  0  0  0  0  0
   -7.4713    0.4923    5.1648 H   0  0  0  0  0  0  0  0  0  0  0  0
   -8.6711    0.0508    2.5295 H   0  0  0  0  0  0  0  0  0  0  0  0
   -8.2037   -1.3742    3.4194 H   0  0  0  0  0  0  0  0  0  0  0  0
   -8.5440   -1.8610    1.0309 H   0  0  0  0  0  0  0  0  0  0  0  0
   -6.9168   -2.2473    1.5608 H   0  0  0  0  0  0  0  0  0  0  0  0
   -5.3083   -2.2359    4.9911 H   0  0  0  0  0  0  0  0  0  0  0  0
   -8.3644    1.1770    0.6462 H   0  0  0  0  0  0  0  0  0  0  0  0
   -7.7100    1.1820   -0.9775 H   0  0  0  0  0  0  0  0  0  0  0  0
   -8.9825    0.0363   -0.5450 H   0  0  0  0  0  0  0  0  0  0  0  0
   -1.5798   -0.9617   -3.1739 H   0  0  0  0  0  0  0  0  0  0  0  0
   -3.1314   -1.7285   -3.1108 H   0  0  0  0  0  0  0  0  0  0  0  0
   -2.9483   -0.2135   -4.0006 H   0  0  0  0  0  0  0  0  0  0  0  0
   -1.3082    3.9450   -2.2516 H   0  0  0  0  0  0  0  0  0  0  0  0
    0.2107    3.7725   -1.4860 H   0  0  0  0  0  0  0  0  0  0  0  0
   -1.2248    3.7477   -0.4772 H   0  0  0  0  0  0  0  0  0  0  0  0
  1  2  1  0
  2  3  1  0
  3  4  1  0
  4  5  1  0
  5  6  1  0
  6  7  1  0
  7  8  1  0
  8  9  2  0
  8 10  1  0
  7 11  1  0
 11 12  1  0
 12 13  1  0
 13 14  1  0
 12 15  1  0
 11 16  1  0
  3 17  1  0
 17 18  1  0
 18 19  1  0
 19 20  1  0
 20 21  1  0
 19 22  1  0
 22 23  2  0
 22 24  1  0
 17 25  1  0
 25 26  1  0
 26 27  1  0
 27 28  1  0
 28 29  1  0
 29 30  1  0
 30 31  1  0
 31 32  1  0
 31 33  1  0
 30 34  1  0
 34 35  1  0
 35 36  1  0
 36 37  1  0
 37 38  1  0
 38 39  2  0
 38 40  1  0
 40 41  2  0
 41 42  1  0
 42 43  1  0
 42 44  1  0
 44 45  1  0
 45 46  1  0
 46 47  1  0
 47 48  1  0
 48 49  1  0
 49 50  1  0
 49 51  1  0
 51 52  1  0
 49 53  1  0
 53 54  2  0
 53 55  1  0
 46 56  1  0
 36 57  1  0
 29 58  1  0
 20  2  1  0
 31 26  1  0
 42 36  1  0
 52 46  1  0
 13  5  1  0
 37 29  1  0
 47 41  1  0
  1 59  1  0
  2 60  1  0
  3 61  1  0
  5 62  1  0
  7 63  1  0
 10 64  1  0
 11 65  1  0
 12 66  1  0
 13 67  1  0
 14 68  1  0
 15 69  1  0
 16 70  1  0
 17 71  1  0
 19 72  1  0
 20 73  1  0
 21 74  1  0
 24 75  1  0
 26 76  1  0
 27 77  1  0
 27 78  1  0
 28 79  1  0
 28 80  1  0
 30 81  1  0
 32 82  1  0
 32 83  1  0
 32 84  1  0
 33 85  1  0
 33 86  1  0
 33 87  1  0
 34 88  1  0
 34 89  1  0
 35 90  1  0
 35 91  1  0
 37 92  1  0
 40 93  1  0
 43 94  1  0
 43 95  1  0
 43 96  1  0
 44 97  1  0
 44 98  1  0
 45 99  1  0
 45100  1  0
 47101  1  0
 48102  1  0
 48103  1  0
 50104  1  0
 50105  1  0
 50106  1  0
 51107  1  0
 51108  1  0
 52109  1  0
 52110  1  0
 55111  1  0
 56112  1  0
 56113  1  0
 56114  1  0
 57115  1  0
 57116  1  0
 57117  1  0
 58118  1  0
 58119  1  0
 58120  1  0
M  END
