
     RDKit          3D

 48 49  0  0  0  0  0  0  0  0999 V2000
    4.1794    2.2311    1.4745 C   0  0  0  0  0  0  0  0  0  0  0  0
    3.0767    1.3398    1.3432 O   0  0  0  0  0  0  0  0  0  0  0  0
    3.2690    0.3549    0.3100 C   0  0  0  0  0  0  0  0  0  0  0  0
    2.2255    0.5234   -0.8080 C   0  0  0  0  0  0  0  0  0  0  0  0
    2.2648    1.9201   -1.4350 C   0  0  0  0  0  0  0  0  0  0  0  0
    1.3219    2.0038   -2.5076 O   0  0  0  0  0  0  0  0  0  0  0  0
    0.8948    0.3311   -0.2996 O   0  0  0  0  0  0  0  0  0  0  0  0
    0.6764   -0.9868    0.1972 C   0  0  0  0  0  0  0  0  0  0  0  0
    1.6335   -1.2834    1.3730 C   0  0  0  0  0  0  0  0  0  0  0  0
    3.0853   -1.0248    0.9510 C   0  0  0  0  0  0  0  0  0  0  0  0
    3.9377   -1.1559    2.1017 O   0  0  0  0  0  0  0  0  0  0  0  0
    1.5335   -2.6549    1.7950 O   0  0  0  0  0  0  0  0  0  0  0  0
   -0.6628   -1.1080    0.6709 O   0  0  0  0  0  0  0  0  0  0  0  0
   -1.7066   -0.9156   -0.2862 C   0  0  0  0  0  0  0  0  0  0  0  0
   -1.5357   -1.7546   -1.5861 C   0  0  0  0  0  0  0  0  0  0  0  0
   -0.5629   -1.2446   -2.5036 O   0  0  0  0  0  0  0  0  0  0  0  0
   -2.9269   -1.4141    0.3422 O   0  0  0  0  0  0  0  0  0  0  0  0
   -3.8514   -0.3119    0.4653 C   0  0  0  0  0  0  0  0  0  0  0  0
   -3.4666    0.6617   -0.6288 C   0  0  0  0  0  0  0  0  0  0  0  0
   -1.9540    0.5968   -0.5350 C   0  0  0  0  0  0  0  0  0  0  0  0
   -1.3786    1.1412   -1.7259 O   0  0  0  0  0  0  0  0  0  0  0  0
   -3.9609    1.9748   -0.4140 O   0  0  0  0  0  0  0  0  0  0  0  0
   -5.2765   -0.8365    0.3342 C   0  0  0  0  0  0  0  0  0  0  0  0
   -5.5394   -1.7849    1.3697 O   0  0  0  0  0  0  0  0  0  0  0  0
    5.0809    1.6805    1.7594 H   0  0  0  0  0  0  0  0  0  0  0  0
    4.3483    2.7756    0.5410 H   0  0  0  0  0  0  0  0  0  0  0  0
    3.9459    2.9513    2.2629 H   0  0  0  0  0  0  0  0  0  0  0  0
    4.2846    0.4323   -0.0991 H   0  0  0  0  0  0  0  0  0  0  0  0
    2.3908   -0.2206   -1.5985 H   0  0  0  0  0  0  0  0  0  0  0  0
    1.9777    2.6872   -0.7094 H   0  0  0  0  0  0  0  0  0  0  0  0
    3.2577    2.1570   -1.8290 H   0  0  0  0  0  0  0  0  0  0  0  0
    1.5872    1.3658   -3.1938 H   0  0  0  0  0  0  0  0  0  0  0  0
    0.8540   -1.7343   -0.5836 H   0  0  0  0  0  0  0  0  0  0  0  0
    1.3674   -0.6692    2.2419 H   0  0  0  0  0  0  0  0  0  0  0  0
    3.4007   -1.8041    0.2463 H   0  0  0  0  0  0  0  0  0  0  0  0
    3.7663   -0.3627    2.6479 H   0  0  0  0  0  0  0  0  0  0  0  0
    2.2555   -2.7877    2.4391 H   0  0  0  0  0  0  0  0  0  0  0  0
   -2.4877   -1.8260   -2.1243 H   0  0  0  0  0  0  0  0  0  0  0  0
   -1.2408   -2.7782   -1.3300 H   0  0  0  0  0  0  0  0  0  0  0  0
   -0.8367   -0.3205   -2.6901 H   0  0  0  0  0  0  0  0  0  0  0  0
   -3.7149    0.1223    1.4641 H   0  0  0  0  0  0  0  0  0  0  0  0
   -3.8082    0.3282   -1.6163 H   0  0  0  0  0  0  0  0  0  0  0  0
   -1.6059    1.2075    0.3085 H   0  0  0  0  0  0  0  0  0  0  0  0
   -0.4481    1.3734   -1.4952 H   0  0  0  0  0  0  0  0  0  0  0  0
   -3.4793    2.5506   -1.0391 H   0  0  0  0  0  0  0  0  0  0  0  0
   -5.4194   -1.3546   -0.6197 H   0  0  0  0  0  0  0  0  0  0  0  0
   -6.0098   -0.0288    0.4125 H   0  0  0  0  0  0  0  0  0  0  0  0
   -4.7422   -2.3476    1.4251 H   0  0  0  0  0  0  0  0  0  0  0  0
  1  2  1  0
  2  3  1  0
  3  4  1  0
  4  5  1  0
  5  6  1  0
  4  7  1  0
  7  8  1  0
  8  9  1  0
  9 10  1  0
 10 11  1  0
  9 12  1  0
  8 13  1  0
 13 14  1  0
 14 15  1  0
 15 16  1  0
 14 17  1  0
 17 18  1  0
 18 19  1  0
 19 20  1  0
 20 21  1  0
 19 22  1  0
 18 23  1  0
 23 24  1  0
 10  3  1  0
 20 14  1  0
  1 25  1  0
  1 26  1  0
  1 27  1  0
  3 28  1  0
  4 29  1  0
  5 30  1  0
  5 31  1  0
  6 32  1  0
  8 33  1  0
  9 34  1  0
 10 35  1  0
 11 36  1  0
 12 37  1  0
 15 38  1  0
 15 39  1  0
 16 40  1  0
 18 41  1  0
 19 42  1  0
 20 43  1  0
 21 44  1  0
 22 45  1  0
 23 46  1  0
 23 47  1  0
 24 48  1  0
M  END
