
     RDKit          3D

 48 49  0  0  0  0  0  0  0  0999 V2000
   -5.0078    2.1630   -0.0415 C   0  0  0  0  0  0  0  0  0  0  0  0
   -4.4147    0.9027   -0.3223 O   0  0  0  0  0  0  0  0  0  0  0  0
   -3.5223    0.4963    0.7220 C   0  0  0  0  0  0  0  0  0  0  0  0
   -2.8384   -0.8133    0.3248 C   0  0  0  0  0  0  0  0  0  0  0  0
   -1.8845   -0.5754   -0.7347 O   0  0  0  0  0  0  0  0  0  0  0  0
   -0.6396   -1.2134   -0.3871 C   0  0  0  0  0  0  0  0  0  0  0  0
   -0.9767   -2.2032    0.7482 C   0  0  0  0  0  0  0  0  0  0  0  0
   -2.0587   -1.4290    1.4836 C   0  0  0  0  0  0  0  0  0  0  0  0
   -2.8575   -2.2967    2.2839 O   0  0  0  0  0  0  0  0  0  0  0  0
   -1.4949   -3.4588    0.2806 O   0  0  0  0  0  0  0  0  0  0  0  0
   -0.0611   -1.9341   -1.6258 C   0  0  0  0  0  0  0  0  0  0  0  0
    1.0648   -2.7594   -1.3104 O   0  0  0  0  0  0  0  0  0  0  0  0
    0.2469   -0.2541    0.2041 O   0  0  0  0  0  0  0  0  0  0  0  0
    0.6048    0.8462   -0.6283 C   0  0  0  0  0  0  0  0  0  0  0  0
    1.6940    0.5264   -1.4988 O   0  0  0  0  0  0  0  0  0  0  0  0
    2.8794    0.1528   -0.7729 C   0  0  0  0  0  0  0  0  0  0  0  0
    3.9004   -0.3536   -1.7966 C   0  0  0  0  0  0  0  0  0  0  0  0
    4.2597    0.6914   -2.7011 O   0  0  0  0  0  0  0  0  0  0  0  0
    3.3981    1.3641    0.0216 C   0  0  0  0  0  0  0  0  0  0  0  0
    2.3101    1.8778    0.9724 C   0  0  0  0  0  0  0  0  0  0  0  0
    0.9721    2.0686    0.2477 C   0  0  0  0  0  0  0  0  0  0  0  0
   -0.0507    2.3381    1.2181 O   0  0  0  0  0  0  0  0  0  0  0  0
    2.1457    0.9677    2.0790 O   0  0  0  0  0  0  0  0  0  0  0  0
    4.5493    1.0309    0.8068 O   0  0  0  0  0  0  0  0  0  0  0  0
   -4.2408    2.9403    0.0282 H   0  0  0  0  0  0  0  0  0  0  0  0
   -5.6858    2.4149   -0.8613 H   0  0  0  0  0  0  0  0  0  0  0  0
   -5.5841    2.1171    0.8875 H   0  0  0  0  0  0  0  0  0  0  0  0
   -2.7725    1.2816    0.8728 H   0  0  0  0  0  0  0  0  0  0  0  0
   -4.1008    0.3594    1.6425 H   0  0  0  0  0  0  0  0  0  0  0  0
   -3.5882   -1.5114   -0.0676 H   0  0  0  0  0  0  0  0  0  0  0  0
   -0.1259   -2.4233    1.4013 H   0  0  0  0  0  0  0  0  0  0  0  0
   -1.6209   -0.6500    2.1198 H   0  0  0  0  0  0  0  0  0  0  0  0
   -2.3346   -2.5211    3.0760 H   0  0  0  0  0  0  0  0  0  0  0  0
   -2.2671   -3.6622    0.8486 H   0  0  0  0  0  0  0  0  0  0  0  0
    0.2499   -1.2215   -2.3939 H   0  0  0  0  0  0  0  0  0  0  0  0
   -0.8243   -2.5612   -2.1020 H   0  0  0  0  0  0  0  0  0  0  0  0
    0.6936   -3.5445   -0.8626 H   0  0  0  0  0  0  0  0  0  0  0  0
   -0.2504    1.1347   -1.2495 H   0  0  0  0  0  0  0  0  0  0  0  0
    2.6626   -0.6860   -0.0999 H   0  0  0  0  0  0  0  0  0  0  0  0
    4.8117   -0.7108   -1.3087 H   0  0  0  0  0  0  0  0  0  0  0  0
    3.4819   -1.1735   -2.3899 H   0  0  0  0  0  0  0  0  0  0  0  0
    3.4326    0.9200   -3.1684 H   0  0  0  0  0  0  0  0  0  0  0  0
    3.6623    2.1838   -0.6581 H   0  0  0  0  0  0  0  0  0  0  0  0
    2.6242    2.8231    1.4301 H   0  0  0  0  0  0  0  0  0  0  0  0
    1.0597    2.9441   -0.4069 H   0  0  0  0  0  0  0  0  0  0  0  0
    0.1294    1.6848    1.9270 H   0  0  0  0  0  0  0  0  0  0  0  0
    3.0622    0.7275    2.3317 H   0  0  0  0  0  0  0  0  0  0  0  0
    5.3068    0.9992    0.1912 H   0  0  0  0  0  0  0  0  0  0  0  0
  1  2  1  0
  2  3  1  0
  3  4  1  0
  4  5  1  0
  5  6  1  0
  6  7  1  0
  7  8  1  0
  8  9  1  0
  7 10  1  0
  6 11  1  0
 11 12  1  0
  6 13  1  0
 13 14  1  0
 14 15  1  0
 15 16  1  0
 16 17  1  0
 17 18  1  0
 16 19  1  0
 19 20  1  0
 20 21  1  0
 21 22  1  0
 20 23  1  0
 19 24  1  0
  8  4  1  0
 21 14  1  0
  1 25  1  0
  1 26  1  0
  1 27  1  0
  3 28  1  0
  3 29  1  0
  4 30  1  0
  7 31  1  0
  8 32  1  0
  9 33  1  0
 10 34  1  0
 11 35  1  0
 11 36  1  0
 12 37  1  0
 14 38  1  0
 16 39  1  0
 17 40  1  0
 17 41  1  0
 18 42  1  0
 19 43  1  0
 20 44  1  0
 21 45  1  0
 22 46  1  0
 23 47  1  0
 24 48  1  0
M  END
