
     RDKit          3D

 51 52  0  0  0  0  0  0  0  0999 V2000
    6.8859    0.6520   -0.7326 C   0  0  0  0  0  0  0  0  0  0  0  0
    5.5364    0.3600   -1.0739 O   0  0  0  0  0  0  0  0  0  0  0  0
    4.6818    0.4219    0.0659 C   0  0  0  0  0  0  0  0  0  0  0  0
    3.2530    0.1050   -0.3583 C   0  0  0  0  0  0  0  0  0  0  0  0
    2.3617    0.1489    0.7682 O   0  0  0  0  0  0  0  0  0  0  0  0
    1.0077    0.3554    0.2634 C   0  0  0  0  0  0  0  0  0  0  0  0
    1.1731    0.6648   -1.2514 C   0  0  0  0  0  0  0  0  0  0  0  0
    2.6356    1.0679   -1.3643 C   0  0  0  0  0  0  0  0  0  0  0  0
    2.7407    2.4555   -1.0107 O   0  0  0  0  0  0  0  0  0  0  0  0
    0.2976    1.6639   -1.7630 O   0  0  0  0  0  0  0  0  0  0  0  0
    0.3857    1.5178    1.0816 C   0  0  0  0  0  0  0  0  0  0  0  0
    0.2060    1.1643    2.4592 O   0  0  0  0  0  0  0  0  0  0  0  0
    0.3172   -0.8920    0.4292 O   0  0  0  0  0  0  0  0  0  0  0  0
   -1.0898   -0.8606    0.1749 C   0  0  0  0  0  0  0  0  0  0  0  0
   -1.7487   -0.5327    1.3982 O   0  0  0  0  0  0  0  0  0  0  0  0
   -3.1865   -0.5822    1.3348 C   0  0  0  0  0  0  0  0  0  0  0  0
   -3.7864    0.5425    0.4620 C   0  0  0  0  0  0  0  0  0  0  0  0
   -3.2002    1.8234    0.7111 O   0  0  0  0  0  0  0  0  0  0  0  0
   -3.5269    2.3602    1.9861 C   0  0  0  0  0  0  0  0  0  0  0  0
   -3.6641   -1.9834    0.9228 C   0  0  0  0  0  0  0  0  0  0  0  0
   -2.9820   -2.4404   -0.3730 C   0  0  0  0  0  0  0  0  0  0  0  0
   -1.4678   -2.2880   -0.2738 C   0  0  0  0  0  0  0  0  0  0  0  0
   -0.9905   -3.2679    0.6770 O   0  0  0  0  0  0  0  0  0  0  0  0
   -3.3272   -3.8166   -0.6048 O   0  0  0  0  0  0  0  0  0  0  0  0
   -5.0826   -2.0254    0.7546 O   0  0  0  0  0  0  0  0  0  0  0  0
    7.2629   -0.0745   -0.0063 H   0  0  0  0  0  0  0  0  0  0  0  0
    7.4921    0.5863   -1.6400 H   0  0  0  0  0  0  0  0  0  0  0  0
    6.9676    1.6661   -0.3299 H   0  0  0  0  0  0  0  0  0  0  0  0
    5.0088   -0.3101    0.8148 H   0  0  0  0  0  0  0  0  0  0  0  0
    4.7441    1.4106    0.5349 H   0  0  0  0  0  0  0  0  0  0  0  0
    3.2229   -0.9140   -0.7682 H   0  0  0  0  0  0  0  0  0  0  0  0
    0.9994   -0.2485   -1.8341 H   0  0  0  0  0  0  0  0  0  0  0  0
    3.0272    0.9529   -2.3787 H   0  0  0  0  0  0  0  0  0  0  0  0
    2.9782    2.5196   -0.0670 H   0  0  0  0  0  0  0  0  0  0  0  0
    0.8144    2.4983   -1.7662 H   0  0  0  0  0  0  0  0  0  0  0  0
   -0.5890    1.8167    0.6906 H   0  0  0  0  0  0  0  0  0  0  0  0
    1.0370    2.3960    1.0697 H   0  0  0  0  0  0  0  0  0  0  0  0
   -0.3675    0.3700    2.4468 H   0  0  0  0  0  0  0  0  0  0  0  0
   -1.3398   -0.1388   -0.6093 H   0  0  0  0  0  0  0  0  0  0  0  0
   -3.5315   -0.4067    2.3606 H   0  0  0  0  0  0  0  0  0  0  0  0
   -4.8736    0.6060    0.5888 H   0  0  0  0  0  0  0  0  0  0  0  0
   -3.6045    0.3397   -0.5976 H   0  0  0  0  0  0  0  0  0  0  0  0
   -4.6106    2.3759    2.1357 H   0  0  0  0  0  0  0  0  0  0  0  0
   -3.0404    1.7917    2.7831 H   0  0  0  0  0  0  0  0  0  0  0  0
   -3.1551    3.3877    2.0275 H   0  0  0  0  0  0  0  0  0  0  0  0
   -3.4213   -2.6935    1.7235 H   0  0  0  0  0  0  0  0  0  0  0  0
   -3.3721   -1.8762   -1.2269 H   0  0  0  0  0  0  0  0  0  0  0  0
   -0.9826   -2.5381   -1.2234 H   0  0  0  0  0  0  0  0  0  0  0  0
   -0.1501   -2.8991    1.0236 H   0  0  0  0  0  0  0  0  0  0  0  0
   -2.6757   -4.3336   -0.0834 H   0  0  0  0  0  0  0  0  0  0  0  0
   -5.2708   -2.8986    0.3528 H   0  0  0  0  0  0  0  0  0  0  0  0
  1  2  1  0
  2  3  1  0
  3  4  1  0
  4  5  1  0
  5  6  1  0
  6  7  1  0
  7  8  1  0
  8  9  1  0
  7 10  1  0
  6 11  1  0
 11 12  1  0
  6 13  1  0
 13 14  1  0
 14 15  1  0
 15 16  1  0
 16 17  1  0
 17 18  1  0
 18 19  1  0
 16 20  1  0
 20 21  1  0
 21 22  1  0
 22 23  1  0
 21 24  1  0
 20 25  1  0
  8  4  1  0
 22 14  1  0
  1 26  1  0
  1 27  1  0
  1 28  1  0
  3 29  1  0
  3 30  1  0
  4 31  1  0
  7 32  1  0
  8 33  1  0
  9 34  1  0
 10 35  1  0
 11 36  1  0
 11 37  1  0
 12 38  1  0
 14 39  1  0
 16 40  1  0
 17 41  1  0
 17 42  1  0
 19 43  1  0
 19 44  1  0
 19 45  1  0
 20 46  1  0
 21 47  1  0
 22 48  1  0
 23 49  1  0
 24 50  1  0
 25 51  1  0
M  END
