
     RDKit          3D

 51 52  0  0  0  0  0  0  0  0999 V2000
    6.3415   -1.1922    0.2927 C   0  0  0  0  0  0  0  0  0  0  0  0
    5.0617   -1.5622   -0.2070 O   0  0  0  0  0  0  0  0  0  0  0  0
    3.9899   -0.9695    0.5233 C   0  0  0  0  0  0  0  0  0  0  0  0
    3.6502    0.4319   -0.0010 C   0  0  0  0  0  0  0  0  0  0  0  0
    2.5272    0.9428    0.7425 O   0  0  0  0  0  0  0  0  0  0  0  0
    1.3254    0.8264   -0.0722 C   0  0  0  0  0  0  0  0  0  0  0  0
    1.7561    0.1398   -1.3917 C   0  0  0  0  0  0  0  0  0  0  0  0
    3.2411    0.4378   -1.4713 C   0  0  0  0  0  0  0  0  0  0  0  0
    3.3949    1.7405   -2.0599 O   0  0  0  0  0  0  0  0  0  0  0  0
    1.0615    0.5889   -2.5531 O   0  0  0  0  0  0  0  0  0  0  0  0
    0.7962    2.2762   -0.2540 C   0  0  0  0  0  0  0  0  0  0  0  0
    0.4640    2.8828    1.0051 O   0  0  0  0  0  0  0  0  0  0  0  0
    0.4396   -0.0377    0.6570 O   0  0  0  0  0  0  0  0  0  0  0  0
   -0.8944   -0.1037    0.1466 C   0  0  0  0  0  0  0  0  0  0  0  0
   -1.6554    0.9710    0.6709 O   0  0  0  0  0  0  0  0  0  0  0  0
   -2.9836    1.0070    0.1334 C   0  0  0  0  0  0  0  0  0  0  0  0
   -3.6338    2.2900    0.6629 C   0  0  0  0  0  0  0  0  0  0  0  0
   -2.8220    3.4162    0.3162 O   0  0  0  0  0  0  0  0  0  0  0  0
   -3.7847   -0.2485    0.5315 C   0  0  0  0  0  0  0  0  0  0  0  0
   -2.9753   -1.5148    0.1749 C   0  0  0  0  0  0  0  0  0  0  0  0
   -1.5198   -1.4124    0.6464 C   0  0  0  0  0  0  0  0  0  0  0  0
   -0.7943   -2.5605    0.1753 O   0  0  0  0  0  0  0  0  0  0  0  0
   -3.5485   -2.6828    0.7913 O   0  0  0  0  0  0  0  0  0  0  0  0
   -5.0426   -0.1824   -0.1606 O   0  0  0  0  0  0  0  0  0  0  0  0
   -5.9915   -1.1519    0.2648 C   0  0  0  0  0  0  0  0  0  0  0  0
    6.4909   -0.1114    0.2201 H   0  0  0  0  0  0  0  0  0  0  0  0
    7.1024   -1.6887   -0.3155 H   0  0  0  0  0  0  0  0  0  0  0  0
    6.4568   -1.5212    1.3298 H   0  0  0  0  0  0  0  0  0  0  0  0
    3.1214   -1.6302    0.4213 H   0  0  0  0  0  0  0  0  0  0  0  0
    4.2111   -0.9409    1.5978 H   0  0  0  0  0  0  0  0  0  0  0  0
    4.4933    1.1100    0.1662 H   0  0  0  0  0  0  0  0  0  0  0  0
    1.5973   -0.9424   -1.3154 H   0  0  0  0  0  0  0  0  0  0  0  0
    3.7849   -0.2690   -2.1041 H   0  0  0  0  0  0  0  0  0  0  0  0
    4.3500    1.9369   -2.0835 H   0  0  0  0  0  0  0  0  0  0  0  0
    1.5965    1.3313   -2.9086 H   0  0  0  0  0  0  0  0  0  0  0  0
    1.5605    2.9152   -0.7054 H   0  0  0  0  0  0  0  0  0  0  0  0
   -0.0956    2.3168   -0.8850 H   0  0  0  0  0  0  0  0  0  0  0  0
    1.0339    2.4440    1.6662 H   0  0  0  0  0  0  0  0  0  0  0  0
   -0.8818   -0.0881   -0.9495 H   0  0  0  0  0  0  0  0  0  0  0  0
   -2.9123    1.0943   -0.9594 H   0  0  0  0  0  0  0  0  0  0  0  0
   -4.6304    2.4437    0.2395 H   0  0  0  0  0  0  0  0  0  0  0  0
   -3.7121    2.2721    1.7550 H   0  0  0  0  0  0  0  0  0  0  0  0
   -1.9172    3.2036    0.6327 H   0  0  0  0  0  0  0  0  0  0  0  0
   -3.9727   -0.2352    1.6136 H   0  0  0  0  0  0  0  0  0  0  0  0
   -3.0193   -1.6945   -0.9065 H   0  0  0  0  0  0  0  0  0  0  0  0
   -1.4868   -1.4570    1.7428 H   0  0  0  0  0  0  0  0  0  0  0  0
    0.1187   -2.4386    0.4999 H   0  0  0  0  0  0  0  0  0  0  0  0
   -2.9162   -3.4057    0.6042 H   0  0  0  0  0  0  0  0  0  0  0  0
   -6.0386   -1.2137    1.3561 H   0  0  0  0  0  0  0  0  0  0  0  0
   -5.7641   -2.1277   -0.1710 H   0  0  0  0  0  0  0  0  0  0  0  0
   -6.9740   -0.8456   -0.1055 H   0  0  0  0  0  0  0  0  0  0  0  0
  1  2  1  0
  2  3  1  0
  3  4  1  0
  4  5  1  0
  5  6  1  0
  6  7  1  0
  7  8  1  0
  8  9  1  0
  7 10  1  0
  6 11  1  0
 11 12  1  0
  6 13  1  0
 13 14  1  0
 14 15  1  0
 15 16  1  0
 16 17  1  0
 17 18  1  0
 16 19  1  0
 19 20  1  0
 20 21  1  0
 21 22  1  0
 20 23  1  0
 19 24  1  0
 24 25  1  0
  8  4  1  0
 21 14  1  0
  1 26  1  0
  1 27  1  0
  1 28  1  0
  3 29  1  0
  3 30  1  0
  4 31  1  0
  7 32  1  0
  8 33  1  0
  9 34  1  0
 10 35  1  0
 11 36  1  0
 11 37  1  0
 12 38  1  0
 14 39  1  0
 16 40  1  0
 17 41  1  0
 17 42  1  0
 18 43  1  0
 19 44  1  0
 20 45  1  0
 21 46  1  0
 22 47  1  0
 23 48  1  0
 25 49  1  0
 25 50  1  0
 25 51  1  0
M  END
