
     RDKit          3D

 51 52  0  0  0  0  0  0  0  0999 V2000
    5.0795   -0.7540    2.9482 C   0  0  0  0  0  0  0  0  0  0  0  0
    4.2891   -0.1274    1.9448 O   0  0  0  0  0  0  0  0  0  0  0  0
    3.0077   -0.7486    1.8276 C   0  0  0  0  0  0  0  0  0  0  0  0
    2.2102   -0.0704    0.7064 C   0  0  0  0  0  0  0  0  0  0  0  0
    0.8490   -0.5559    0.7767 O   0  0  0  0  0  0  0  0  0  0  0  0
    0.1522   -0.3388   -0.4488 C   0  0  0  0  0  0  0  0  0  0  0  0
   -1.2290   -0.6618   -0.2743 O   0  0  0  0  0  0  0  0  0  0  0  0
   -2.0258    0.3826    0.3063 C   0  0  0  0  0  0  0  0  0  0  0  0
   -1.5018    0.8556    1.6759 C   0  0  0  0  0  0  0  0  0  0  0  0
   -1.3033   -0.2552    2.5533 O   0  0  0  0  0  0  0  0  0  0  0  0
   -2.1426    1.4772   -0.6177 O   0  0  0  0  0  0  0  0  0  0  0  0
   -3.2974    1.2298   -1.4598 C   0  0  0  0  0  0  0  0  0  0  0  0
   -3.9399   -0.0804   -0.9820 C   0  0  0  0  0  0  0  0  0  0  0  0
   -3.4631   -0.1511    0.4554 C   0  0  0  0  0  0  0  0  0  0  0  0
   -3.5860   -1.4701    0.9796 O   0  0  0  0  0  0  0  0  0  0  0  0
   -5.3623   -0.1155   -1.0677 O   0  0  0  0  0  0  0  0  0  0  0  0
   -4.2248    2.4479   -1.4059 C   0  0  0  0  0  0  0  0  0  0  0  0
   -5.3468    2.2973   -2.2655 O   0  0  0  0  0  0  0  0  0  0  0  0
    0.7106   -1.3052   -1.5207 C   0  0  0  0  0  0  0  0  0  0  0  0
    2.2374   -1.4718   -1.4037 C   0  0  0  0  0  0  0  0  0  0  0  0
    2.8783   -0.2801   -0.6852 C   0  0  0  0  0  0  0  0  0  0  0  0
    2.6548    0.8744   -1.5236 O   0  0  0  0  0  0  0  0  0  0  0  0
    3.6306    1.8922   -1.3162 C   0  0  0  0  0  0  0  0  0  0  0  0
    2.5594   -2.6909   -0.7165 O   0  0  0  0  0  0  0  0  0  0  0  0
    0.1164   -2.6218   -1.4061 O   0  0  0  0  0  0  0  0  0  0  0  0
    4.5900   -0.6782    3.9240 H   0  0  0  0  0  0  0  0  0  0  0  0
    6.0424   -0.2387    2.9988 H   0  0  0  0  0  0  0  0  0  0  0  0
    5.2583   -1.8034    2.6952 H   0  0  0  0  0  0  0  0  0  0  0  0
    2.4660   -0.6446    2.7760 H   0  0  0  0  0  0  0  0  0  0  0  0
    3.1216   -1.8209    1.6349 H   0  0  0  0  0  0  0  0  0  0  0  0
    2.1647    1.0028    0.9271 H   0  0  0  0  0  0  0  0  0  0  0  0
    0.2607    0.7041   -0.7701 H   0  0  0  0  0  0  0  0  0  0  0  0
   -0.5615    1.4084    1.5845 H   0  0  0  0  0  0  0  0  0  0  0  0
   -2.2115    1.5459    2.1447 H   0  0  0  0  0  0  0  0  0  0  0  0
   -0.5255   -0.7287    2.1854 H   0  0  0  0  0  0  0  0  0  0  0  0
   -2.9460    1.1002   -2.4902 H   0  0  0  0  0  0  0  0  0  0  0  0
   -3.5568   -0.9294   -1.5613 H   0  0  0  0  0  0  0  0  0  0  0  0
   -4.0794    0.5108    1.0768 H   0  0  0  0  0  0  0  0  0  0  0  0
   -2.9941   -1.5091    1.7596 H   0  0  0  0  0  0  0  0  0  0  0  0
   -5.6292   -0.9323   -0.5980 H   0  0  0  0  0  0  0  0  0  0  0  0
   -3.6790    3.3478   -1.7092 H   0  0  0  0  0  0  0  0  0  0  0  0
   -4.5812    2.6289   -0.3856 H   0  0  0  0  0  0  0  0  0  0  0  0
   -5.7835    1.4601   -1.9939 H   0  0  0  0  0  0  0  0  0  0  0  0
    0.4309   -0.9221   -2.5085 H   0  0  0  0  0  0  0  0  0  0  0  0
    2.6506   -1.5673   -2.4147 H   0  0  0  0  0  0  0  0  0  0  0  0
    3.9574   -0.4492   -0.5857 H   0  0  0  0  0  0  0  0  0  0  0  0
    3.4007    2.7248   -1.9864 H   0  0  0  0  0  0  0  0  0  0  0  0
    3.6036    2.2583   -0.2873 H   0  0  0  0  0  0  0  0  0  0  0  0
    4.6293    1.5185   -1.5587 H   0  0  0  0  0  0  0  0  0  0  0  0
    1.7968   -3.2816   -0.9019 H   0  0  0  0  0  0  0  0  0  0  0  0
   -0.7777   -2.4629   -1.0357 H   0  0  0  0  0  0  0  0  0  0  0  0
  1  2  1  0
  2  3  1  0
  3  4  1  0
  4  5  1  0
  5  6  1  0
  6  7  1  0
  7  8  1  0
  8  9  1  0
  9 10  1  0
  8 11  1  0
 11 12  1  0
 12 13  1  0
 13 14  1  0
 14 15  1  0
 13 16  1  0
 12 17  1  0
 17 18  1  0
  6 19  1  0
 19 20  1  0
 20 21  1  0
 21 22  1  0
 22 23  1  0
 20 24  1  0
 19 25  1  0
 21  4  1  0
 14  8  1  0
  1 26  1  0
  1 27  1  0
  1 28  1  0
  3 29  1  0
  3 30  1  0
  4 31  1  0
  6 32  1  0
  9 33  1  0
  9 34  1  0
 10 35  1  0
 12 36  1  0
 13 37  1  0
 14 38  1  0
 15 39  1  0
 16 40  1  0
 17 41  1  0
 17 42  1  0
 18 43  1  0
 19 44  1  0
 20 45  1  0
 21 46  1  0
 23 47  1  0
 23 48  1  0
 23 49  1  0
 24 50  1  0
 25 51  1  0
M  END
