
     RDKit          3D

 51 52  0  0  0  0  0  0  0  0999 V2000
   -4.3999   -2.2162    3.3971 C   0  0  0  0  0  0  0  0  0  0  0  0
   -4.1782   -0.9958    2.7042 O   0  0  0  0  0  0  0  0  0  0  0  0
   -2.8526   -0.9180    2.1834 C   0  0  0  0  0  0  0  0  0  0  0  0
   -2.6693    0.3879    1.4010 C   0  0  0  0  0  0  0  0  0  0  0  0
   -1.2836    0.4867    1.0077 O   0  0  0  0  0  0  0  0  0  0  0  0
   -1.1688    0.3265   -0.4184 C   0  0  0  0  0  0  0  0  0  0  0  0
   -2.5800   -0.0601   -0.9387 C   0  0  0  0  0  0  0  0  0  0  0  0
   -3.5246    0.4582    0.1336 C   0  0  0  0  0  0  0  0  0  0  0  0
   -3.9406    1.8015   -0.1384 O   0  0  0  0  0  0  0  0  0  0  0  0
   -2.7255   -1.4932   -1.0189 O   0  0  0  0  0  0  0  0  0  0  0  0
   -0.6615    1.6596   -1.0346 C   0  0  0  0  0  0  0  0  0  0  0  0
   -1.6261    2.7135   -0.9210 O   0  0  0  0  0  0  0  0  0  0  0  0
   -1.1348    3.9310   -1.4745 C   0  0  0  0  0  0  0  0  0  0  0  0
   -0.2964   -0.7804   -0.7307 O   0  0  0  0  0  0  0  0  0  0  0  0
    1.0332   -0.6447   -0.2105 C   0  0  0  0  0  0  0  0  0  0  0  0
    1.8080    0.1339   -1.1275 O   0  0  0  0  0  0  0  0  0  0  0  0
    3.1552    0.3104   -0.6707 C   0  0  0  0  0  0  0  0  0  0  0  0
    3.8761    1.2132   -1.6828 C   0  0  0  0  0  0  0  0  0  0  0  0
    5.2369    1.4184   -1.3117 O   0  0  0  0  0  0  0  0  0  0  0  0
    3.8911   -1.0373   -0.5083 C   0  0  0  0  0  0  0  0  0  0  0  0
    3.0726   -2.0020    0.3606 C   0  0  0  0  0  0  0  0  0  0  0  0
    1.6230   -2.0701   -0.1081 C   0  0  0  0  0  0  0  0  0  0  0  0
    1.5715   -2.7268   -1.3882 O   0  0  0  0  0  0  0  0  0  0  0  0
    3.1256   -1.5603    1.7253 O   0  0  0  0  0  0  0  0  0  0  0  0
    5.1684   -0.8604    0.1255 O   0  0  0  0  0  0  0  0  0  0  0  0
   -3.7017   -2.3163    4.2340 H   0  0  0  0  0  0  0  0  0  0  0  0
   -5.4191   -2.2068    3.7920 H   0  0  0  0  0  0  0  0  0  0  0  0
   -4.2973   -3.0664    2.7163 H   0  0  0  0  0  0  0  0  0  0  0  0
   -2.1348   -0.9439    3.0128 H   0  0  0  0  0  0  0  0  0  0  0  0
   -2.6414   -1.7877    1.5509 H   0  0  0  0  0  0  0  0  0  0  0  0
   -2.8907    1.2362    2.0588 H   0  0  0  0  0  0  0  0  0  0  0  0
   -2.7793    0.3425   -1.9366 H   0  0  0  0  0  0  0  0  0  0  0  0
   -4.4380   -0.1385    0.2181 H   0  0  0  0  0  0  0  0  0  0  0  0
   -3.1394    2.3496   -0.2760 H   0  0  0  0  0  0  0  0  0  0  0  0
   -1.8276   -1.8351   -1.1987 H   0  0  0  0  0  0  0  0  0  0  0  0
   -0.4153    1.5062   -2.0924 H   0  0  0  0  0  0  0  0  0  0  0  0
    0.2431    1.9861   -0.5089 H   0  0  0  0  0  0  0  0  0  0  0  0
   -0.9149    3.8055   -2.5391 H   0  0  0  0  0  0  0  0  0  0  0  0
   -0.2395    4.2607   -0.9386 H   0  0  0  0  0  0  0  0  0  0  0  0
   -1.9097    4.6942   -1.3645 H   0  0  0  0  0  0  0  0  0  0  0  0
    1.0232   -0.1682    0.7768 H   0  0  0  0  0  0  0  0  0  0  0  0
    3.1474    0.8381    0.2927 H   0  0  0  0  0  0  0  0  0  0  0  0
    3.8475    0.7712   -2.6849 H   0  0  0  0  0  0  0  0  0  0  0  0
    3.3734    2.1853   -1.7404 H   0  0  0  0  0  0  0  0  0  0  0  0
    5.5960    2.0856   -1.9264 H   0  0  0  0  0  0  0  0  0  0  0  0
    4.0538   -1.4930   -1.4924 H   0  0  0  0  0  0  0  0  0  0  0  0
    3.5353   -2.9952    0.3296 H   0  0  0  0  0  0  0  0  0  0  0  0
    1.0136   -2.6621    0.5845 H   0  0  0  0  0  0  0  0  0  0  0  0
    0.7305   -2.4439   -1.7953 H   0  0  0  0  0  0  0  0  0  0  0  0
    4.0789   -1.3937    1.8875 H   0  0  0  0  0  0  0  0  0  0  0  0
    5.5861   -0.0862   -0.3148 H   0  0  0  0  0  0  0  0  0  0  0  0
  1  2  1  0
  2  3  1  0
  3  4  1  0
  4  5  1  0
  5  6  1  0
  6  7  1  0
  7  8  1  0
  8  9  1  0
  7 10  1  0
  6 11  1  0
 11 12  1  0
 12 13  1  0
  6 14  1  0
 14 15  1  0
 15 16  1  0
 16 17  1  0
 17 18  1  0
 18 19  1  0
 17 20  1  0
 20 21  1  0
 21 22  1  0
 22 23  1  0
 21 24  1  0
 20 25  1  0
  8  4  1  0
 22 15  1  0
  1 26  1  0
  1 27  1  0
  1 28  1  0
  3 29  1  0
  3 30  1  0
  4 31  1  0
  7 32  1  0
  8 33  1  0
  9 34  1  0
 10 35  1  0
 11 36  1  0
 11 37  1  0
 13 38  1  0
 13 39  1  0
 13 40  1  0
 15 41  1  0
 17 42  1  0
 18 43  1  0
 18 44  1  0
 19 45  1  0
 20 46  1  0
 21 47  1  0
 22 48  1  0
 23 49  1  0
 24 50  1  0
 25 51  1  0
M  END
