
     RDKit          3D

 26 26  0  0  0  0  0  0  0  0999 V2000
    2.9084    0.8084    0.6003 C   0  0  0  0  0  0  0  0  0  0  0  0
    1.9693   -0.2589    0.6349 O   0  0  0  0  0  0  0  0  0  0  0  0
    1.2777   -0.4064   -0.6005 C   0  0  0  0  0  0  0  0  0  0  0  0
    0.5017   -1.7208   -0.5880 C   0  0  0  0  0  0  0  0  0  0  0  0
   -0.6366   -1.6587    0.4214 C   0  0  0  0  0  0  0  0  0  0  0  0
   -1.4517   -2.8362    0.3430 O   0  0  0  0  0  0  0  0  0  0  0  0
   -1.5158   -0.4266    0.1772 C   0  0  0  0  0  0  0  0  0  0  0  0
   -0.6424    0.8295    0.1235 C   0  0  0  0  0  0  0  0  0  0  0  0
    0.3992    0.6892   -0.8663 O   0  0  0  0  0  0  0  0  0  0  0  0
   -1.4670    2.0646   -0.2555 C   0  0  0  0  0  0  0  0  0  0  0  0
   -0.6092    3.2055   -0.3518 O   0  0  0  0  0  0  0  0  0  0  0  0
   -2.5054   -0.3340    1.2022 O   0  0  0  0  0  0  0  0  0  0  0  0
    3.4065    0.8568    1.5723 H   0  0  0  0  0  0  0  0  0  0  0  0
    3.6655    0.6291   -0.1691 H   0  0  0  0  0  0  0  0  0  0  0  0
    2.4068    1.7639    0.4209 H   0  0  0  0  0  0  0  0  0  0  0  0
    2.0088   -0.4503   -1.4166 H   0  0  0  0  0  0  0  0  0  0  0  0
    0.0880   -1.9158   -1.5855 H   0  0  0  0  0  0  0  0  0  0  0  0
    1.1594   -2.5632   -0.3442 H   0  0  0  0  0  0  0  0  0  0  0  0
   -0.2414   -1.6336    1.4438 H   0  0  0  0  0  0  0  0  0  0  0  0
   -1.6971   -2.9792   -0.5880 H   0  0  0  0  0  0  0  0  0  0  0  0
   -2.0513   -0.5565   -0.7719 H   0  0  0  0  0  0  0  0  0  0  0  0
   -0.1777    1.0282    1.0978 H   0  0  0  0  0  0  0  0  0  0  0  0
   -2.2409    2.2796    0.4869 H   0  0  0  0  0  0  0  0  0  0  0  0
   -1.9408    1.9358   -1.2343 H   0  0  0  0  0  0  0  0  0  0  0  0
    0.1637    2.9024   -0.8654 H   0  0  0  0  0  0  0  0  0  0  0  0
   -2.7777   -1.2525    1.4002 H   0  0  0  0  0  0  0  0  0  0  0  0
  1  2  1  0
  2  3  1  0
  3  4  1  0
  4  5  1  0
  5  6  1  0
  5  7  1  0
  7  8  1  0
  8  9  1  0
  8 10  1  0
 10 11  1  0
  7 12  1  0
  9  3  1  0
  1 13  1  0
  1 14  1  0
  1 15  1  0
  3 16  1  0
  4 17  1  0
  4 18  1  0
  5 19  1  0
  6 20  1  0
  7 21  1  0
  8 22  1  0
 10 23  1  0
 10 24  1  0
 11 25  1  0
 12 26  1  0
M  END
