
     RDKit          3D

 26 26  0  0  0  0  0  0  0  0999 V2000
    2.8122    0.6087   -1.4802 C   0  0  0  0  0  0  0  0  0  0  0  0
    2.1323   -0.5407   -0.9955 O   0  0  0  0  0  0  0  0  0  0  0  0
    1.1610   -0.2083    0.0059 C   0  0  0  0  0  0  0  0  0  0  0  0
    0.1159    0.5895   -0.5497 O   0  0  0  0  0  0  0  0  0  0  0  0
   -0.8886    0.9156    0.4293 C   0  0  0  0  0  0  0  0  0  0  0  0
   -1.8905    1.8510   -0.2566 C   0  0  0  0  0  0  0  0  0  0  0  0
   -2.4698    1.2078   -1.3937 O   0  0  0  0  0  0  0  0  0  0  0  0
   -1.5575   -0.3678    0.9742 C   0  0  0  0  0  0  0  0  0  0  0  0
   -0.5011   -1.2892    1.5739 C   0  0  0  0  0  0  0  0  0  0  0  0
    0.6204   -1.5405    0.5706 C   0  0  0  0  0  0  0  0  0  0  0  0
    1.6716   -2.2675    1.2192 O   0  0  0  0  0  0  0  0  0  0  0  0
   -2.2335   -1.1034   -0.0481 O   0  0  0  0  0  0  0  0  0  0  0  0
    3.5632    0.2814   -2.2044 H   0  0  0  0  0  0  0  0  0  0  0  0
    2.1192    1.2871   -1.9865 H   0  0  0  0  0  0  0  0  0  0  0  0
    3.3220    1.1290   -0.6637 H   0  0  0  0  0  0  0  0  0  0  0  0
    1.6723    0.3495    0.8024 H   0  0  0  0  0  0  0  0  0  0  0  0
   -0.4109    1.4638    1.2515 H   0  0  0  0  0  0  0  0  0  0  0  0
   -1.3913    2.7578   -0.6135 H   0  0  0  0  0  0  0  0  0  0  0  0
   -2.6960    2.1379    0.4257 H   0  0  0  0  0  0  0  0  0  0  0  0
   -1.7086    0.9452   -1.9531 H   0  0  0  0  0  0  0  0  0  0  0  0
   -2.3010   -0.1094    1.7360 H   0  0  0  0  0  0  0  0  0  0  0  0
   -0.0872   -0.8447    2.4879 H   0  0  0  0  0  0  0  0  0  0  0  0
   -0.9415   -2.2498    1.8683 H   0  0  0  0  0  0  0  0  0  0  0  0
    0.2500   -2.1680   -0.2494 H   0  0  0  0  0  0  0  0  0  0  0  0
    2.3632   -2.3745    0.5371 H   0  0  0  0  0  0  0  0  0  0  0  0
   -2.7257   -0.4605   -0.6014 H   0  0  0  0  0  0  0  0  0  0  0  0
  1  2  1  0
  2  3  1  0
  3  4  1  0
  4  5  1  0
  5  6  1  0
  6  7  1  0
  5  8  1  0
  8  9  1  0
  9 10  1  0
 10 11  1  0
  8 12  1  0
 10  3  1  0
  1 13  1  0
  1 14  1  0
  1 15  1  0
  3 16  1  0
  5 17  1  0
  6 18  1  0
  6 19  1  0
  7 20  1  0
  8 21  1  0
  9 22  1  0
  9 23  1  0
 10 24  1  0
 11 25  1  0
 12 26  1  0
M  END
