
     RDKit          3D

 26 26  0  0  0  0  0  0  0  0999 V2000
    3.1166   -0.4692    0.7364 C   0  0  0  0  0  0  0  0  0  0  0  0
    1.9262   -1.2397    0.8337 O   0  0  0  0  0  0  0  0  0  0  0  0
    0.8875   -0.7223   -0.0113 C   0  0  0  0  0  0  0  0  0  0  0  0
    0.4460    0.5399    0.4970 O   0  0  0  0  0  0  0  0  0  0  0  0
   -0.6082    1.0981   -0.3047 C   0  0  0  0  0  0  0  0  0  0  0  0
   -0.9382    2.4764    0.2761 C   0  0  0  0  0  0  0  0  0  0  0  0
    0.2270    3.3004    0.2369 O   0  0  0  0  0  0  0  0  0  0  0  0
   -1.8380    0.1891   -0.2898 C   0  0  0  0  0  0  0  0  0  0  0  0
   -1.4740   -1.2206   -0.7523 C   0  0  0  0  0  0  0  0  0  0  0  0
   -0.2633   -1.7522    0.0158 C   0  0  0  0  0  0  0  0  0  0  0  0
   -0.6531   -2.0266    1.3747 O   0  0  0  0  0  0  0  0  0  0  0  0
   -1.1863   -1.1946   -2.1523 O   0  0  0  0  0  0  0  0  0  0  0  0
    3.8739   -0.9283    1.3777 H   0  0  0  0  0  0  0  0  0  0  0  0
    2.9480    0.5551    1.0814 H   0  0  0  0  0  0  0  0  0  0  0  0
    3.4898   -0.4651   -0.2922 H   0  0  0  0  0  0  0  0  0  0  0  0
    1.2715   -0.6022   -1.0327 H   0  0  0  0  0  0  0  0  0  0  0  0
   -0.2237    1.2297   -1.3244 H   0  0  0  0  0  0  0  0  0  0  0  0
   -1.7280    2.9715   -0.2963 H   0  0  0  0  0  0  0  0  0  0  0  0
   -1.2508    2.4024    1.3230 H   0  0  0  0  0  0  0  0  0  0  0  0
    0.9299    2.7644    0.6532 H   0  0  0  0  0  0  0  0  0  0  0  0
   -2.6153    0.6130   -0.9361 H   0  0  0  0  0  0  0  0  0  0  0  0
   -2.2400    0.1318    0.7294 H   0  0  0  0  0  0  0  0  0  0  0  0
   -2.3319   -1.8857   -0.5979 H   0  0  0  0  0  0  0  0  0  0  0  0
    0.0891   -2.6976   -0.4122 H   0  0  0  0  0  0  0  0  0  0  0  0
    0.1809   -1.9767    1.8857 H   0  0  0  0  0  0  0  0  0  0  0  0
   -2.0355   -1.0910   -2.6189 H   0  0  0  0  0  0  0  0  0  0  0  0
  1  2  1  0
  2  3  1  0
  3  4  1  0
  4  5  1  0
  5  6  1  0
  6  7  1  0
  5  8  1  0
  8  9  1  0
  9 10  1  0
 10 11  1  0
  9 12  1  0
 10  3  1  0
  1 13  1  0
  1 14  1  0
  1 15  1  0
  3 16  1  0
  5 17  1  0
  6 18  1  0
  6 19  1  0
  7 20  1  0
  8 21  1  0
  8 22  1  0
  9 23  1  0
 10 24  1  0
 11 25  1  0
 12 26  1  0
M  END
