
     RDKit          3D

 26 26  0  0  0  0  0  0  0  0999 V2000
    3.1634   -0.3033   -1.2650 C   0  0  0  0  0  0  0  0  0  0  0  0
    2.2690    0.7251   -0.8595 O   0  0  0  0  0  0  0  0  0  0  0  0
    1.2354    0.2259   -0.0026 C   0  0  0  0  0  0  0  0  0  0  0  0
    0.3972   -0.6759   -0.7247 O   0  0  0  0  0  0  0  0  0  0  0  0
   -0.6825   -1.1839    0.0687 C   0  0  0  0  0  0  0  0  0  0  0  0
   -1.4465   -2.1892   -0.7864 C   0  0  0  0  0  0  0  0  0  0  0  0
   -1.5966   -0.0472    0.5498 C   0  0  0  0  0  0  0  0  0  0  0  0
   -0.7707    1.0054    1.2996 C   0  0  0  0  0  0  0  0  0  0  0  0
    0.4315    1.4519    0.4751 C   0  0  0  0  0  0  0  0  0  0  0  0
   -0.0604    2.2173   -0.6483 O   0  0  0  0  0  0  0  0  0  0  0  0
   -1.6179    2.1289    1.5927 O   0  0  0  0  0  0  0  0  0  0  0  0
   -2.6125   -0.5452    1.4263 O   0  0  0  0  0  0  0  0  0  0  0  0
    3.9518    0.1500   -1.8721 H   0  0  0  0  0  0  0  0  0  0  0  0
    2.6474   -1.0512   -1.8742 H   0  0  0  0  0  0  0  0  0  0  0  0
    3.6258   -0.7779   -0.3941 H   0  0  0  0  0  0  0  0  0  0  0  0
    1.6864   -0.2893    0.8555 H   0  0  0  0  0  0  0  0  0  0  0  0
   -0.2681   -1.7267    0.9286 H   0  0  0  0  0  0  0  0  0  0  0  0
   -1.8585   -1.7084   -1.6806 H   0  0  0  0  0  0  0  0  0  0  0  0
   -2.2648   -2.6545   -0.2290 H   0  0  0  0  0  0  0  0  0  0  0  0
   -0.7731   -2.9788   -1.1375 H   0  0  0  0  0  0  0  0  0  0  0  0
   -2.1057    0.4215   -0.3017 H   0  0  0  0  0  0  0  0  0  0  0  0
   -0.4425    0.5990    2.2635 H   0  0  0  0  0  0  0  0  0  0  0  0
    1.0672    2.1381    1.0449 H   0  0  0  0  0  0  0  0  0  0  0  0
    0.6387    2.1336   -1.3309 H   0  0  0  0  0  0  0  0  0  0  0  0
   -1.5862    2.6851    0.7847 H   0  0  0  0  0  0  0  0  0  0  0  0
   -3.0282    0.2497    1.8172 H   0  0  0  0  0  0  0  0  0  0  0  0
  1  2  1  0
  2  3  1  0
  3  4  1  0
  4  5  1  0
  5  6  1  0
  5  7  1  0
  7  8  1  0
  8  9  1  0
  9 10  1  0
  8 11  1  0
  7 12  1  0
  9  3  1  0
  1 13  1  0
  1 14  1  0
  1 15  1  0
  3 16  1  0
  5 17  1  0
  6 18  1  0
  6 19  1  0
  6 20  1  0
  7 21  1  0
  8 22  1  0
  9 23  1  0
 10 24  1  0
 11 25  1  0
 12 26  1  0
M  END
