
     RDKit          3D

 41 41  0  0  0  0  0  0  0  0999 V2000
    4.4147    0.6169   -0.9172 C   0  0  0  0  0  0  0  0  0  0  0  0
    4.1975    1.0412    0.5089 C   0  0  0  0  0  0  0  0  0  0  0  0
    3.2717    0.5205    1.3378 C   0  0  0  0  0  0  0  0  0  0  0  0
    2.3069   -0.6007    1.0506 C   0  0  0  0  0  0  0  0  0  0  0  0
    0.9082   -0.0508    0.7379 C   0  0  0  0  0  0  0  0  0  0  0  0
   -0.1687   -1.1327    0.4597 C   0  0  0  0  0  0  0  0  0  0  0  0
   -1.5877   -0.4809    0.4008 C   0  0  0  0  0  0  0  0  0  0  0  0
   -1.7580    0.5466   -0.7266 C   0  0  0  0  0  0  0  0  0  0  0  0
   -3.1524    1.1757   -0.7142 C   0  0  0  0  0  0  0  0  0  0  0  0
   -4.2510    0.1511   -0.6201 C   0  0  0  0  0  0  0  0  0  0  0  0
   -4.0349   -1.1005   -0.1858 C   0  0  0  0  0  0  0  0  0  0  0  0
   -2.6967   -1.5296    0.2923 C   0  0  0  0  0  0  0  0  0  0  0  0
   -2.5490   -2.6982    0.6512 O   0  0  0  0  0  0  0  0  0  0  0  0
   -5.6174    0.6111   -1.0404 C   0  0  0  0  0  0  0  0  0  0  0  0
   -0.1272   -2.0360    1.5749 O   0  0  0  0  0  0  0  0  0  0  0  0
    0.1799   -1.9255   -0.8094 C   0  0  0  0  0  0  0  0  0  0  0  0
    5.1130    2.1425    0.9755 C   0  0  0  0  0  0  0  0  0  0  0  0
    3.6587   -0.0827   -1.2813 H   0  0  0  0  0  0  0  0  0  0  0  0
    5.3950    0.1411   -1.0234 H   0  0  0  0  0  0  0  0  0  0  0  0
    4.3821    1.4900   -1.5780 H   0  0  0  0  0  0  0  0  0  0  0  0
    3.1947    0.9190    2.3496 H   0  0  0  0  0  0  0  0  0  0  0  0
    2.6726   -1.2281    0.2338 H   0  0  0  0  0  0  0  0  0  0  0  0
    2.2734   -1.2473    1.9355 H   0  0  0  0  0  0  0  0  0  0  0  0
    0.9837    0.6307   -0.1181 H   0  0  0  0  0  0  0  0  0  0  0  0
    0.5851    0.5517    1.5983 H   0  0  0  0  0  0  0  0  0  0  0  0
   -1.7675    0.0146    1.3664 H   0  0  0  0  0  0  0  0  0  0  0  0
   -1.5999    0.0677   -1.7012 H   0  0  0  0  0  0  0  0  0  0  0  0
   -1.0217    1.3520   -0.6414 H   0  0  0  0  0  0  0  0  0  0  0  0
   -3.2696    1.7651   -1.6316 H   0  0  0  0  0  0  0  0  0  0  0  0
   -3.2420    1.8701    0.1300 H   0  0  0  0  0  0  0  0  0  0  0  0
   -4.8181   -1.8484   -0.1277 H   0  0  0  0  0  0  0  0  0  0  0  0
   -6.3702   -0.1760   -0.9264 H   0  0  0  0  0  0  0  0  0  0  0  0
   -5.9329    1.4651   -0.4323 H   0  0  0  0  0  0  0  0  0  0  0  0
   -5.6094    0.9157   -2.0919 H   0  0  0  0  0  0  0  0  0  0  0  0
   -0.8386   -2.6992    1.4379 H   0  0  0  0  0  0  0  0  0  0  0  0
    1.0809   -2.5310   -0.6639 H   0  0  0  0  0  0  0  0  0  0  0  0
    0.3419   -1.2676   -1.6688 H   0  0  0  0  0  0  0  0  0  0  0  0
   -0.6078   -2.6388   -1.0715 H   0  0  0  0  0  0  0  0  0  0  0  0
    4.9706    3.0394    0.3638 H   0  0  0  0  0  0  0  0  0  0  0  0
    4.9320    2.4199    2.0193 H   0  0  0  0  0  0  0  0  0  0  0  0
    6.1581    1.8264    0.8926 H   0  0  0  0  0  0  0  0  0  0  0  0
  1  2  1  0
  2  3  2  3
  3  4  1  0
  4  5  1  0
  5  6  1  0
  6  7  1  0
  7  8  1  0
  8  9  1  0
  9 10  1  0
 10 11  2  0
 11 12  1  0
 12 13  2  0
 10 14  1  0
  6 15  1  0
  6 16  1  0
  2 17  1  0
 12  7  1  0
  1 18  1  0
  1 19  1  0
  1 20  1  0
  3 21  1  0
  4 22  1  0
  4 23  1  0
  5 24  1  0
  5 25  1  0
  7 26  1  0
  8 27  1  0
  8 28  1  0
  9 29  1  0
  9 30  1  0
 11 31  1  0
 14 32  1  0
 14 33  1  0
 14 34  1  0
 15 35  1  0
 16 36  1  0
 16 37  1  0
 16 38  1  0
 17 39  1  0
 17 40  1  0
 17 41  1  0
M  END
