
     RDKit          3D

 25 25  0  0  0  0  0  0  0  0999 V2000
    2.5058    1.5679    1.5793 C   0  0  0  0  0  0  0  0  0  0  0  0
    2.0478    0.2316    1.4290 O   0  0  0  0  0  0  0  0  0  0  0  0
    1.2108    0.0747    0.2858 C   0  0  0  0  0  0  0  0  0  0  0  0
    0.9041   -1.4136    0.1485 C   0  0  0  0  0  0  0  0  0  0  0  0
   -0.0864   -1.6526   -0.9836 C   0  0  0  0  0  0  0  0  0  0  0  0
   -0.4850   -3.0238   -0.9815 O   0  0  0  0  0  0  0  0  0  0  0  0
   -1.3207   -0.7513   -0.8384 C   0  0  0  0  0  0  0  0  0  0  0  0
   -0.8698    0.7085   -0.6874 C   0  0  0  0  0  0  0  0  0  0  0  0
   -0.0014    0.8153    0.4508 O   0  0  0  0  0  0  0  0  0  0  0  0
   -2.0433    1.6525   -0.4570 C   0  0  0  0  0  0  0  0  0  0  0  0
   -2.0531   -1.1854    0.3221 O   0  0  0  0  0  0  0  0  0  0  0  0
    3.0661    1.8858    0.6947 H   0  0  0  0  0  0  0  0  0  0  0  0
    3.1739    1.6050    2.4442 H   0  0  0  0  0  0  0  0  0  0  0  0
    1.6693    2.2490    1.7616 H   0  0  0  0  0  0  0  0  0  0  0  0
    1.7457    0.4336   -0.6035 H   0  0  0  0  0  0  0  0  0  0  0  0
    0.4966   -1.8033    1.0913 H   0  0  0  0  0  0  0  0  0  0  0  0
    1.8250   -1.9863   -0.0165 H   0  0  0  0  0  0  0  0  0  0  0  0
    0.4041   -1.4535   -1.9435 H   0  0  0  0  0  0  0  0  0  0  0  0
   -1.2179   -3.0857   -0.3348 H   0  0  0  0  0  0  0  0  0  0  0  0
   -1.9868   -0.8796   -1.6980 H   0  0  0  0  0  0  0  0  0  0  0  0
   -0.3269    1.0361   -1.5831 H   0  0  0  0  0  0  0  0  0  0  0  0
   -1.6855    2.6847   -0.3742 H   0  0  0  0  0  0  0  0  0  0  0  0
   -2.7622    1.5993   -1.2800 H   0  0  0  0  0  0  0  0  0  0  0  0
   -2.5620    1.4296    0.4815 H   0  0  0  0  0  0  0  0  0  0  0  0
   -1.6484   -0.7385    1.0928 H   0  0  0  0  0  0  0  0  0  0  0  0
  1  2  1  0
  2  3  1  0
  3  4  1  0
  4  5  1  0
  5  6  1  0
  5  7  1  0
  7  8  1  0
  8  9  1  0
  8 10  1  0
  7 11  1  0
  9  3  1  0
  1 12  1  0
  1 13  1  0
  1 14  1  0
  3 15  1  0
  4 16  1  0
  4 17  1  0
  5 18  1  0
  6 19  1  0
  7 20  1  0
  8 21  1  0
 10 22  1  0
 10 23  1  0
 10 24  1  0
 11 25  1  0
M  END
