
     RDKit          3D

 25 25  0  0  0  0  0  0  0  0999 V2000
    3.0324    0.9015   -0.6692 C   0  0  0  0  0  0  0  0  0  0  0  0
    2.3829   -0.0455    0.1688 O   0  0  0  0  0  0  0  0  0  0  0  0
    1.0612   -0.3482   -0.2935 C   0  0  0  0  0  0  0  0  0  0  0  0
    0.2332    0.8109   -0.2088 O   0  0  0  0  0  0  0  0  0  0  0  0
   -1.1150    0.5566   -0.6300 C   0  0  0  0  0  0  0  0  0  0  0  0
   -1.8642    1.8824   -0.5697 C   0  0  0  0  0  0  0  0  0  0  0  0
   -1.7865   -0.5297    0.2373 C   0  0  0  0  0  0  0  0  0  0  0  0
   -0.9304   -1.7982    0.2757 C   0  0  0  0  0  0  0  0  0  0  0  0
    0.5165   -1.4631    0.6265 C   0  0  0  0  0  0  0  0  0  0  0  0
    0.5617   -1.0219    1.9979 O   0  0  0  0  0  0  0  0  0  0  0  0
   -1.9968   -0.0637    1.5717 O   0  0  0  0  0  0  0  0  0  0  0  0
    4.0496    1.0467   -0.2955 H   0  0  0  0  0  0  0  0  0  0  0  0
    2.5157    1.8653   -0.6423 H   0  0  0  0  0  0  0  0  0  0  0  0
    3.0901    0.5315   -1.6974 H   0  0  0  0  0  0  0  0  0  0  0  0
    1.1086   -0.7015   -1.3318 H   0  0  0  0  0  0  0  0  0  0  0  0
   -1.0867    0.2213   -1.6748 H   0  0  0  0  0  0  0  0  0  0  0  0
   -1.3924    2.6133   -1.2358 H   0  0  0  0  0  0  0  0  0  0  0  0
   -1.8314    2.3152    0.4360 H   0  0  0  0  0  0  0  0  0  0  0  0
   -2.9093    1.7628   -0.8706 H   0  0  0  0  0  0  0  0  0  0  0  0
   -2.7754   -0.7663   -0.1703 H   0  0  0  0  0  0  0  0  0  0  0  0
   -1.3376   -2.4912    1.0215 H   0  0  0  0  0  0  0  0  0  0  0  0
   -0.9615   -2.2880   -0.7045 H   0  0  0  0  0  0  0  0  0  0  0  0
    1.1494   -2.3546    0.5623 H   0  0  0  0  0  0  0  0  0  0  0  0
    1.4107   -0.5371    2.0747 H   0  0  0  0  0  0  0  0  0  0  0  0
   -1.1248   -0.0987    2.0221 H   0  0  0  0  0  0  0  0  0  0  0  0
  1  2  1  0
  2  3  1  0
  3  4  1  0
  4  5  1  0
  5  6  1  0
  5  7  1  0
  7  8  1  0
  8  9  1  0
  9 10  1  0
  7 11  1  0
  9  3  1  0
  1 12  1  0
  1 13  1  0
  1 14  1  0
  3 15  1  0
  5 16  1  0
  6 17  1  0
  6 18  1  0
  6 19  1  0
  7 20  1  0
  8 21  1  0
  8 22  1  0
  9 23  1  0
 10 24  1  0
 11 25  1  0
M  END
