
     RDKit          3D

 25 25  0  0  0  0  0  0  0  0999 V2000
    3.0932    0.3394   -0.9978 C   0  0  0  0  0  0  0  0  0  0  0  0
    2.1441   -0.6995   -0.7961 O   0  0  0  0  0  0  0  0  0  0  0  0
    1.0911   -0.2966    0.0884 C   0  0  0  0  0  0  0  0  0  0  0  0
    0.3237    0.7492   -0.5097 O   0  0  0  0  0  0  0  0  0  0  0  0
   -0.7693    1.1725    0.3101 C   0  0  0  0  0  0  0  0  0  0  0  0
   -1.4547    2.3337   -0.3971 C   0  0  0  0  0  0  0  0  0  0  0  0
   -1.7439    0.0200    0.5414 C   0  0  0  0  0  0  0  0  0  0  0  0
   -1.0120   -1.1663    1.1616 C   0  0  0  0  0  0  0  0  0  0  0  0
    0.2175   -1.5431    0.3350 C   0  0  0  0  0  0  0  0  0  0  0  0
   -0.2400   -2.1072   -0.9159 O   0  0  0  0  0  0  0  0  0  0  0  0
   -1.9048   -2.2787    1.2389 O   0  0  0  0  0  0  0  0  0  0  0  0
    3.5319    0.6516   -0.0451 H   0  0  0  0  0  0  0  0  0  0  0  0
    2.6339    1.1951   -1.5014 H   0  0  0  0  0  0  0  0  0  0  0  0
    3.8917   -0.0472   -1.6369 H   0  0  0  0  0  0  0  0  0  0  0  0
    1.5229    0.0546    1.0348 H   0  0  0  0  0  0  0  0  0  0  0  0
   -0.3715    1.5325    1.2674 H   0  0  0  0  0  0  0  0  0  0  0  0
   -0.7446    3.1510   -0.5633 H   0  0  0  0  0  0  0  0  0  0  0  0
   -2.2960    2.7162    0.1887 H   0  0  0  0  0  0  0  0  0  0  0  0
   -1.8214    2.0315   -1.3844 H   0  0  0  0  0  0  0  0  0  0  0  0
   -2.5726    0.3296    1.1894 H   0  0  0  0  0  0  0  0  0  0  0  0
   -2.1994   -0.2918   -0.4079 H   0  0  0  0  0  0  0  0  0  0  0  0
   -0.7083   -0.9131    2.1839 H   0  0  0  0  0  0  0  0  0  0  0  0
    0.7949   -2.3354    0.8234 H   0  0  0  0  0  0  0  0  0  0  0  0
    0.4837   -1.9218   -1.5498 H   0  0  0  0  0  0  0  0  0  0  0  0
   -1.8901   -2.6762    0.3426 H   0  0  0  0  0  0  0  0  0  0  0  0
  1  2  1  0
  2  3  1  0
  3  4  1  0
  4  5  1  0
  5  6  1  0
  5  7  1  0
  7  8  1  0
  8  9  1  0
  9 10  1  0
  8 11  1  0
  9  3  1  0
  1 12  1  0
  1 13  1  0
  1 14  1  0
  3 15  1  0
  5 16  1  0
  6 17  1  0
  6 18  1  0
  6 19  1  0
  7 20  1  0
  7 21  1  0
  8 22  1  0
  9 23  1  0
 10 24  1  0
 11 25  1  0
M  END
