
     RDKit          3D

 26 26  0  0  0  0  0  0  0  0999 V2000
    2.5783    1.4626    0.6220 C   0  0  0  0  0  0  0  0  0  0  0  0
    1.9238    0.2867    0.1560 O   0  0  0  0  0  0  0  0  0  0  0  0
    0.8887   -0.1334    1.0534 C   0  0  0  0  0  0  0  0  0  0  0  0
   -0.2007    0.7858    1.1005 O   0  0  0  0  0  0  0  0  0  0  0  0
   -0.8698    0.9494   -0.1642 C   0  0  0  0  0  0  0  0  0  0  0  0
   -1.9822    1.9916   -0.0092 C   0  0  0  0  0  0  0  0  0  0  0  0
   -1.3008    3.6110    0.3328 Cl  0  0  0  0  0  0  0  0  0  0  0  0
   -1.4547   -0.3937   -0.6239 C   0  0  0  0  0  0  0  0  0  0  0  0
   -0.3420   -1.4402   -0.7093 C   0  0  0  0  0  0  0  0  0  0  0  0
    0.4114   -1.5315    0.6175 C   0  0  0  0  0  0  0  0  0  0  0  0
    1.5097   -2.4442    0.4579 O   0  0  0  0  0  0  0  0  0  0  0  0
   -0.9272   -2.7122   -1.0378 O   0  0  0  0  0  0  0  0  0  0  0  0
   -2.0875   -0.2759   -1.8997 O   0  0  0  0  0  0  0  0  0  0  0  0
    3.0432    1.2827    1.5961 H   0  0  0  0  0  0  0  0  0  0  0  0
    1.8781    2.3003    0.6856 H   0  0  0  0  0  0  0  0  0  0  0  0
    3.3628    1.7218   -0.0941 H   0  0  0  0  0  0  0  0  0  0  0  0
    1.3174   -0.2152    2.0595 H   0  0  0  0  0  0  0  0  0  0  0  0
   -0.1573    1.3195   -0.9135 H   0  0  0  0  0  0  0  0  0  0  0  0
   -2.6386    1.7454    0.8309 H   0  0  0  0  0  0  0  0  0  0  0  0
   -2.5823    2.0872   -0.9181 H   0  0  0  0  0  0  0  0  0  0  0  0
   -2.2196   -0.7377    0.0840 H   0  0  0  0  0  0  0  0  0  0  0  0
    0.3414   -1.2100   -1.5359 H   0  0  0  0  0  0  0  0  0  0  0  0
   -0.2539   -1.9556    1.3788 H   0  0  0  0  0  0  0  0  0  0  0  0
    2.2295   -1.9235    0.0458 H   0  0  0  0  0  0  0  0  0  0  0  0
   -0.2277   -3.3736   -0.8591 H   0  0  0  0  0  0  0  0  0  0  0  0
   -2.2400   -1.1972   -2.1962 H   0  0  0  0  0  0  0  0  0  0  0  0
  1  2  1  0
  2  3  1  0
  3  4  1  0
  4  5  1  0
  5  6  1  0
  6  7  1  0
  5  8  1  0
  8  9  1  0
  9 10  1  0
 10 11  1  0
  9 12  1  0
  8 13  1  0
 10  3  1  0
  1 14  1  0
  1 15  1  0
  1 16  1  0
  3 17  1  0
  5 18  1  0
  6 19  1  0
  6 20  1  0
  8 21  1  0
  9 22  1  0
 10 23  1  0
 11 24  1  0
 12 25  1  0
 13 26  1  0
M  END
