
     RDKit          3D

 23 23  0  0  0  0  0  0  0  0999 V2000
   -1.3556   -1.7170   -2.0367 Cl  0  0  0  0  0  0  0  0  0  0  0  0
   -2.2060   -1.3972   -0.4989 C   0  0  0  0  0  0  0  0  0  0  0  0
   -1.4514   -0.4491    0.4367 C   0  0  0  0  0  0  0  0  0  0  0  0
   -0.1518   -0.9972    0.7613 O   0  0  0  0  0  0  0  0  0  0  0  0
    0.8391   -0.0036    0.4670 C   0  0  0  0  0  0  0  0  0  0  0  0
    0.2058    0.9567   -0.5415 C   0  0  0  0  0  0  0  0  0  0  0  0
   -1.2317    0.9826   -0.0536 C   0  0  0  0  0  0  0  0  0  0  0  0
   -2.1442    1.4167   -1.0502 O   0  0  0  0  0  0  0  0  0  0  0  0
    0.7790    2.2658   -0.5183 O   0  0  0  0  0  0  0  0  0  0  0  0
    1.1189    0.7173    1.6729 O   0  0  0  0  0  0  0  0  0  0  0  0
    2.1373   -0.6421   -0.0492 C   0  0  0  0  0  0  0  0  0  0  0  0
    2.8083   -1.2932    1.0421 O   0  0  0  0  0  0  0  0  0  0  0  0
   -2.3224   -2.3729   -0.0170 H   0  0  0  0  0  0  0  0  0  0  0  0
   -3.2013   -1.0118   -0.7389 H   0  0  0  0  0  0  0  0  0  0  0  0
   -2.0167   -0.4091    1.3760 H   0  0  0  0  0  0  0  0  0  0  0  0
    0.2629    0.5872   -1.5696 H   0  0  0  0  0  0  0  0  0  0  0  0
   -1.3279    1.6801    0.7883 H   0  0  0  0  0  0  0  0  0  0  0  0
   -1.7744    2.2428   -1.4179 H   0  0  0  0  0  0  0  0  0  0  0  0
    1.0173    2.4264    0.4197 H   0  0  0  0  0  0  0  0  0  0  0  0
    1.7454    0.1210    2.1360 H   0  0  0  0  0  0  0  0  0  0  0  0
    2.8227    0.1183   -0.4357 H   0  0  0  0  0  0  0  0  0  0  0  0
    1.9299   -1.3881   -0.8227 H   0  0  0  0  0  0  0  0  0  0  0  0
    3.5172   -1.8338    0.6502 H   0  0  0  0  0  0  0  0  0  0  0  0
  1  2  1  0
  2  3  1  0
  3  4  1  0
  4  5  1  0
  5  6  1  0
  6  7  1  0
  7  8  1  0
  6  9  1  0
  5 10  1  0
  5 11  1  0
 11 12  1  0
  7  3  1  0
  2 13  1  0
  2 14  1  0
  3 15  1  0
  6 16  1  0
  7 17  1  0
  8 18  1  0
  9 19  1  0
 10 20  1  0
 11 21  1  0
 11 22  1  0
 12 23  1  0
M  END
