
     RDKit          3D

 22 22  0  0  0  0  0  0  0  0999 V2000
    2.2865    2.1924   -0.3002 Cl  0  0  0  0  0  0  0  0  0  0  0  0
    2.1873    0.9627    0.9923 C   0  0  0  0  0  0  0  0  0  0  0  0
    0.9815    0.0387    0.8399 C   0  0  0  0  0  0  0  0  0  0  0  0
   -0.2586    0.7755    0.9086 O   0  0  0  0  0  0  0  0  0  0  0  0
   -1.1776    0.2123   -0.0413 C   0  0  0  0  0  0  0  0  0  0  0  0
   -0.5313   -1.0920   -0.5493 C   0  0  0  0  0  0  0  0  0  0  0  0
    0.9473   -0.7697   -0.4553 C   0  0  0  0  0  0  0  0  0  0  0  0
    1.7441   -1.9444   -0.3807 O   0  0  0  0  0  0  0  0  0  0  0  0
   -0.7984   -2.1940    0.3486 O   0  0  0  0  0  0  0  0  0  0  0  0
   -2.3864   -0.1399    0.6317 O   0  0  0  0  0  0  0  0  0  0  0  0
   -1.4395    1.1982   -1.1927 C   0  0  0  0  0  0  0  0  0  0  0  0
   -2.3159    2.6483   -0.6113 Cl  0  0  0  0  0  0  0  0  0  0  0  0
    3.1218    0.3944    0.9803 H   0  0  0  0  0  0  0  0  0  0  0  0
    2.1218    1.5157    1.9339 H   0  0  0  0  0  0  0  0  0  0  0  0
    0.9897   -0.6431    1.7008 H   0  0  0  0  0  0  0  0  0  0  0  0
   -0.8597   -1.4026   -1.5449 H   0  0  0  0  0  0  0  0  0  0  0  0
    1.2610   -0.1840   -1.3241 H   0  0  0  0  0  0  0  0  0  0  0  0
    1.1710   -2.6207    0.0422 H   0  0  0  0  0  0  0  0  0  0  0  0
   -1.6478   -1.9568    0.7837 H   0  0  0  0  0  0  0  0  0  0  0  0
   -2.8064    0.7156    0.8471 H   0  0  0  0  0  0  0  0  0  0  0  0
   -2.0779    0.7444   -1.9563 H   0  0  0  0  0  0  0  0  0  0  0  0
   -0.5126    1.5490   -1.6530 H   0  0  0  0  0  0  0  0  0  0  0  0
  1  2  1  0
  2  3  1  0
  3  4  1  0
  4  5  1  0
  5  6  1  0
  6  7  1  0
  7  8  1  0
  6  9  1  0
  5 10  1  0
  5 11  1  0
 11 12  1  0
  7  3  1  0
  2 13  1  0
  2 14  1  0
  3 15  1  0
  6 16  1  0
  7 17  1  0
  8 18  1  0
  9 19  1  0
 10 20  1  0
 11 21  1  0
 11 22  1  0
M  END
