
     RDKit          3D

 27 27  0  0  0  0  0  0  0  0999 V2000
    2.6625    1.3673   -1.4320 C   0  0  0  0  0  0  0  0  0  0  0  0
    2.2670    0.0624   -1.0280 O   0  0  0  0  0  0  0  0  0  0  0  0
    1.1959    0.1043   -0.0750 C   0  0  0  0  0  0  0  0  0  0  0  0
    0.0335    0.7074   -0.6282 O   0  0  0  0  0  0  0  0  0  0  0  0
   -1.0608    0.7727    0.3106 C   0  0  0  0  0  0  0  0  0  0  0  0
   -2.2271    1.4874   -0.3804 C   0  0  0  0  0  0  0  0  0  0  0  0
   -1.9523    2.8901   -0.4513 O   0  0  0  0  0  0  0  0  0  0  0  0
   -1.4692   -0.6323    0.7864 C   0  0  0  0  0  0  0  0  0  0  0  0
   -0.2505   -1.3845    1.3247 C   0  0  0  0  0  0  0  0  0  0  0  0
    0.9028   -1.3513    0.3234 C   0  0  0  0  0  0  0  0  0  0  0  0
    2.0515   -1.9748    0.9246 O   0  0  0  0  0  0  0  0  0  0  0  0
   -0.6191   -2.7483    1.5916 O   0  0  0  0  0  0  0  0  0  0  0  0
   -2.0488   -1.3915   -0.2840 O   0  0  0  0  0  0  0  0  0  0  0  0
    3.5193    1.2707   -2.1044 H   0  0  0  0  0  0  0  0  0  0  0  0
    2.9662    1.9647   -0.5669 H   0  0  0  0  0  0  0  0  0  0  0  0
    1.8556    1.8686   -1.9745 H   0  0  0  0  0  0  0  0  0  0  0  0
    1.5434    0.6737    0.7976 H   0  0  0  0  0  0  0  0  0  0  0  0
   -0.7249    1.3738    1.1658 H   0  0  0  0  0  0  0  0  0  0  0  0
   -2.3642    1.1200   -1.4030 H   0  0  0  0  0  0  0  0  0  0  0  0
   -3.1578    1.3664    0.1821 H   0  0  0  0  0  0  0  0  0  0  0  0
   -2.5760    3.2612   -1.0990 H   0  0  0  0  0  0  0  0  0  0  0  0
   -2.2385   -0.5645    1.5641 H   0  0  0  0  0  0  0  0  0  0  0  0
    0.0701   -0.9492    2.2790 H   0  0  0  0  0  0  0  0  0  0  0  0
    0.6548   -1.9514   -0.5609 H   0  0  0  0  0  0  0  0  0  0  0  0
    2.7799   -1.8132    0.2903 H   0  0  0  0  0  0  0  0  0  0  0  0
    0.2289   -3.2102    1.7565 H   0  0  0  0  0  0  0  0  0  0  0  0
   -2.0421   -2.3194    0.0318 H   0  0  0  0  0  0  0  0  0  0  0  0
  1  2  1  0
  2  3  1  0
  3  4  1  0
  4  5  1  0
  5  6  1  0
  6  7  1  0
  5  8  1  0
  8  9  1  0
  9 10  1  0
 10 11  1  0
  9 12  1  0
  8 13  1  0
 10  3  1  0
  1 14  1  0
  1 15  1  0
  1 16  1  0
  3 17  1  0
  5 18  1  0
  6 19  1  0
  6 20  1  0
  7 21  1  0
  8 22  1  0
  9 23  1  0
 10 24  1  0
 11 25  1  0
 12 26  1  0
 13 27  1  0
M  END
