
     RDKit          3D

 44 45  0  0  0  0  0  0  0  0999 V2000
    3.5346    2.0474   -2.8189 Cl  0  0  0  0  0  0  0  0  0  0  0  0
    4.4922    0.9060   -1.8394 C   0  0  0  0  0  0  0  0  0  0  0  0
    3.6592   -0.1242   -1.0724 C   0  0  0  0  0  0  0  0  0  0  0  0
    2.8928    0.5241   -0.0332 O   0  0  0  0  0  0  0  0  0  0  0  0
    1.5880   -0.1064    0.0188 C   0  0  0  0  0  0  0  0  0  0  0  0
    1.3227   -0.6184   -1.4151 C   0  0  0  0  0  0  0  0  0  0  0  0
    2.7101   -0.9888   -1.9161 C   0  0  0  0  0  0  0  0  0  0  0  0
    2.9597   -2.3759   -1.6459 O   0  0  0  0  0  0  0  0  0  0  0  0
    0.7945    0.3875   -2.2840 O   0  0  0  0  0  0  0  0  0  0  0  0
    1.7203   -1.2608    1.0569 C   0  0  0  0  0  0  0  0  0  0  0  0
    1.9206   -0.7151    2.3735 O   0  0  0  0  0  0  0  0  0  0  0  0
    0.6722    0.9004    0.4719 O   0  0  0  0  0  0  0  0  0  0  0  0
   -0.6773    0.4839    0.6672 C   0  0  0  0  0  0  0  0  0  0  0  0
   -1.3104    0.3263   -0.5953 O   0  0  0  0  0  0  0  0  0  0  0  0
   -2.6927   -0.0701   -0.5180 C   0  0  0  0  0  0  0  0  0  0  0  0
   -2.8674   -1.5083    0.0118 C   0  0  0  0  0  0  0  0  0  0  0  0
   -1.9650   -2.3941   -0.6593 O   0  0  0  0  0  0  0  0  0  0  0  0
   -3.5046    0.9748    0.2662 C   0  0  0  0  0  0  0  0  0  0  0  0
   -2.8592    1.2725    1.6223 C   0  0  0  0  0  0  0  0  0  0  0  0
   -1.3748    1.5993    1.4706 C   0  0  0  0  0  0  0  0  0  0  0  0
   -0.8151    1.7327    2.7882 O   0  0  0  0  0  0  0  0  0  0  0  0
   -3.5525    2.3730    2.2321 O   0  0  0  0  0  0  0  0  0  0  0  0
   -4.8525    0.5481    0.4671 O   0  0  0  0  0  0  0  0  0  0  0  0
    5.1904    0.4005   -2.5162 H   0  0  0  0  0  0  0  0  0  0  0  0
    5.0707    1.5172   -1.1366 H   0  0  0  0  0  0  0  0  0  0  0  0
    4.3761   -0.7724   -0.5480 H   0  0  0  0  0  0  0  0  0  0  0  0
    0.6236   -1.4597   -1.4276 H   0  0  0  0  0  0  0  0  0  0  0  0
    2.8497   -0.8399   -2.9926 H   0  0  0  0  0  0  0  0  0  0  0  0
    2.4609   -2.8862   -2.3134 H   0  0  0  0  0  0  0  0  0  0  0  0
   -0.0146    0.7168   -1.8389 H   0  0  0  0  0  0  0  0  0  0  0  0
    0.8250   -1.8895    1.0887 H   0  0  0  0  0  0  0  0  0  0  0  0
    2.5778   -1.9103    0.8515 H   0  0  0  0  0  0  0  0  0  0  0  0
    2.5932   -0.0134    2.2574 H   0  0  0  0  0  0  0  0  0  0  0  0
   -0.7032   -0.4399    1.2482 H   0  0  0  0  0  0  0  0  0  0  0  0
   -3.0497   -0.0725   -1.5576 H   0  0  0  0  0  0  0  0  0  0  0  0
   -3.8901   -1.8600   -0.1623 H   0  0  0  0  0  0  0  0  0  0  0  0
   -2.6554   -1.5817    1.0847 H   0  0  0  0  0  0  0  0  0  0  0  0
   -2.1824   -3.2919   -0.3593 H   0  0  0  0  0  0  0  0  0  0  0  0
   -3.5482    1.9033   -0.3173 H   0  0  0  0  0  0  0  0  0  0  0  0
   -2.9991    0.4284    2.3100 H   0  0  0  0  0  0  0  0  0  0  0  0
   -1.2507    2.5713    0.9785 H   0  0  0  0  0  0  0  0  0  0  0  0
    0.1580    1.6822    2.6762 H   0  0  0  0  0  0  0  0  0  0  0  0
   -2.9776    2.6587    2.9718 H   0  0  0  0  0  0  0  0  0  0  0  0
   -5.2496    1.2252    1.0540 H   0  0  0  0  0  0  0  0  0  0  0  0
  1  2  1  0
  2  3  1  0
  3  4  1  0
  4  5  1  0
  5  6  1  0
  6  7  1  0
  7  8  1  0
  6  9  1  0
  5 10  1  0
 10 11  1  0
  5 12  1  0
 12 13  1  0
 13 14  1  0
 14 15  1  0
 15 16  1  0
 16 17  1  0
 15 18  1  0
 18 19  1  0
 19 20  1  0
 20 21  1  0
 19 22  1  0
 18 23  1  0
  7  3  1  0
 20 13  1  0
  2 24  1  0
  2 25  1  0
  3 26  1  0
  6 27  1  0
  7 28  1  0
  8 29  1  0
  9 30  1  0
 10 31  1  0
 10 32  1  0
 11 33  1  0
 13 34  1  0
 15 35  1  0
 16 36  1  0
 16 37  1  0
 17 38  1  0
 18 39  1  0
 19 40  1  0
 20 41  1  0
 21 42  1  0
 22 43  1  0
 23 44  1  0
M  END
