
     RDKit          3D

 44 45  0  0  0  0  0  0  0  0999 V2000
    4.6999    0.6381   -1.7316 O   0  0  0  0  0  0  0  0  0  0  0  0
    4.7835    0.4580   -0.3196 C   0  0  0  0  0  0  0  0  0  0  0  0
    3.3989    0.2605    0.3085 C   0  0  0  0  0  0  0  0  0  0  0  0
    2.6110    1.4532    0.0532 O   0  0  0  0  0  0  0  0  0  0  0  0
    1.3611    1.0410   -0.5668 C   0  0  0  0  0  0  0  0  0  0  0  0
    1.7503   -0.2638   -1.2901 C   0  0  0  0  0  0  0  0  0  0  0  0
    2.5864   -0.9301   -0.2156 C   0  0  0  0  0  0  0  0  0  0  0  0
    3.3302   -2.0282   -0.7277 O   0  0  0  0  0  0  0  0  0  0  0  0
    0.6856   -1.0773   -1.7567 O   0  0  0  0  0  0  0  0  0  0  0  0
    0.9207    2.1103   -1.5818 C   0  0  0  0  0  0  0  0  0  0  0  0
    0.4523    3.6522   -0.7999 Cl  0  0  0  0  0  0  0  0  0  0  0  0
    0.4504    0.8771    0.5274 O   0  0  0  0  0  0  0  0  0  0  0  0
   -0.8591    0.3827    0.2387 C   0  0  0  0  0  0  0  0  0  0  0  0
   -0.8979   -0.9948    0.6170 O   0  0  0  0  0  0  0  0  0  0  0  0
   -2.1913   -1.6107    0.4994 C   0  0  0  0  0  0  0  0  0  0  0  0
   -2.5949   -1.8589   -0.9658 C   0  0  0  0  0  0  0  0  0  0  0  0
   -3.1307   -0.6983   -1.5972 O   0  0  0  0  0  0  0  0  0  0  0  0
   -3.2371   -0.8697    1.3455 C   0  0  0  0  0  0  0  0  0  0  0  0
   -3.2281    0.6430    1.0953 C   0  0  0  0  0  0  0  0  0  0  0  0
   -1.8129    1.2024    1.1371 C   0  0  0  0  0  0  0  0  0  0  0  0
   -1.3711    1.1666    2.5170 O   0  0  0  0  0  0  0  0  0  0  0  0
   -4.0404    1.2656    2.1106 O   0  0  0  0  0  0  0  0  0  0  0  0
   -4.5570   -1.3793    1.1163 O   0  0  0  0  0  0  0  0  0  0  0  0
    5.6034    0.8088   -2.0497 H   0  0  0  0  0  0  0  0  0  0  0  0
    5.4301   -0.4008   -0.1151 H   0  0  0  0  0  0  0  0  0  0  0  0
    5.2496    1.3587    0.0939 H   0  0  0  0  0  0  0  0  0  0  0  0
    3.5224    0.1713    1.3939 H   0  0  0  0  0  0  0  0  0  0  0  0
    2.3713   -0.0526   -2.1679 H   0  0  0  0  0  0  0  0  0  0  0  0
    1.9313   -1.3278    0.5692 H   0  0  0  0  0  0  0  0  0  0  0  0
    3.7523   -2.4728    0.0280 H   0  0  0  0  0  0  0  0  0  0  0  0
    1.0847   -1.9527   -1.9253 H   0  0  0  0  0  0  0  0  0  0  0  0
    1.7362    2.3511   -2.2710 H   0  0  0  0  0  0  0  0  0  0  0  0
    0.0561    1.7852   -2.1662 H   0  0  0  0  0  0  0  0  0  0  0  0
   -1.1205    0.5090   -0.8141 H   0  0  0  0  0  0  0  0  0  0  0  0
   -2.0655   -2.6102    0.9349 H   0  0  0  0  0  0  0  0  0  0  0  0
   -3.3490   -2.6517   -1.0268 H   0  0  0  0  0  0  0  0  0  0  0  0
   -1.7274   -2.1789   -1.5497 H   0  0  0  0  0  0  0  0  0  0  0  0
   -4.0958   -0.7368   -1.4506 H   0  0  0  0  0  0  0  0  0  0  0  0
   -3.0155   -1.0492    2.4056 H   0  0  0  0  0  0  0  0  0  0  0  0
   -3.7091    0.8857    0.1443 H   0  0  0  0  0  0  0  0  0  0  0  0
   -1.8049    2.2604    0.8561 H   0  0  0  0  0  0  0  0  0  0  0  0
   -0.3929    1.2074    2.4570 H   0  0  0  0  0  0  0  0  0  0  0  0
   -3.4200    1.4389    2.8517 H   0  0  0  0  0  0  0  0  0  0  0  0
   -5.1466   -0.7826    1.6224 H   0  0  0  0  0  0  0  0  0  0  0  0
  1  2  1  0
  2  3  1  0
  3  4  1  0
  4  5  1  0
  5  6  1  0
  6  7  1  0
  7  8  1  0
  6  9  1  0
  5 10  1  0
 10 11  1  0
  5 12  1  0
 12 13  1  0
 13 14  1  0
 14 15  1  0
 15 16  1  0
 16 17  1  0
 15 18  1  0
 18 19  1  0
 19 20  1  0
 20 21  1  0
 19 22  1  0
 18 23  1  0
  7  3  1  0
 20 13  1  0
  1 24  1  0
  2 25  1  0
  2 26  1  0
  3 27  1  0
  6 28  1  0
  7 29  1  0
  8 30  1  0
  9 31  1  0
 10 32  1  0
 10 33  1  0
 13 34  1  0
 15 35  1  0
 16 36  1  0
 16 37  1  0
 17 38  1  0
 18 39  1  0
 19 40  1  0
 20 41  1  0
 21 42  1  0
 22 43  1  0
 23 44  1  0
M  END
