
     RDKit          3D

 43 44  0  0  0  0  0  0  0  0999 V2000
    3.2516    3.5731    0.0226 Cl  0  0  0  0  0  0  0  0  0  0  0  0
    2.0454    2.2914   -0.2205 C   0  0  0  0  0  0  0  0  0  0  0  0
    2.5933    1.1362   -1.0621 C   0  0  0  0  0  0  0  0  0  0  0  0
    1.5223    0.1850   -1.2713 O   0  0  0  0  0  0  0  0  0  0  0  0
    1.6797   -0.9219   -0.3554 C   0  0  0  0  0  0  0  0  0  0  0  0
    2.9558   -0.6279    0.4780 C   0  0  0  0  0  0  0  0  0  0  0  0
    3.7150    0.3443   -0.4029 C   0  0  0  0  0  0  0  0  0  0  0  0
    4.4430   -0.3980   -1.3930 O   0  0  0  0  0  0  0  0  0  0  0  0
    3.7858   -1.7407    0.8069 O   0  0  0  0  0  0  0  0  0  0  0  0
    1.7463   -2.2221   -1.1851 C   0  0  0  0  0  0  0  0  0  0  0  0
    1.6597   -3.7024   -0.1819 Cl  0  0  0  0  0  0  0  0  0  0  0  0
    0.5972   -0.9870    0.5891 O   0  0  0  0  0  0  0  0  0  0  0  0
   -0.6897   -0.6660    0.0553 C   0  0  0  0  0  0  0  0  0  0  0  0
   -0.9009    0.7397    0.1712 O   0  0  0  0  0  0  0  0  0  0  0  0
   -2.1938    1.1428   -0.3134 C   0  0  0  0  0  0  0  0  0  0  0  0
   -2.2818    2.6691   -0.2403 C   0  0  0  0  0  0  0  0  0  0  0  0
   -3.4499    3.1308   -0.9110 O   0  0  0  0  0  0  0  0  0  0  0  0
   -3.3235    0.4659    0.4856 C   0  0  0  0  0  0  0  0  0  0  0  0
   -3.1407   -1.0519    0.4454 C   0  0  0  0  0  0  0  0  0  0  0  0
   -1.7285   -1.4430    0.8851 C   0  0  0  0  0  0  0  0  0  0  0  0
   -1.5842   -2.8642    0.7126 O   0  0  0  0  0  0  0  0  0  0  0  0
   -4.1017   -1.6691    1.3188 O   0  0  0  0  0  0  0  0  0  0  0  0
   -3.3029    0.8827    1.8609 O   0  0  0  0  0  0  0  0  0  0  0  0
    1.7038    1.9547    0.7631 H   0  0  0  0  0  0  0  0  0  0  0  0
    1.1788    2.7391   -0.7178 H   0  0  0  0  0  0  0  0  0  0  0  0
    2.8912    1.5027   -2.0510 H   0  0  0  0  0  0  0  0  0  0  0  0
    2.6848   -0.1351    1.4199 H   0  0  0  0  0  0  0  0  0  0  0  0
    4.4431    0.9464    0.1463 H   0  0  0  0  0  0  0  0  0  0  0  0
    4.9255   -1.0868   -0.8895 H   0  0  0  0  0  0  0  0  0  0  0  0
    3.2250   -2.3887    1.2767 H   0  0  0  0  0  0  0  0  0  0  0  0
    2.6539   -2.2706   -1.7938 H   0  0  0  0  0  0  0  0  0  0  0  0
    0.9023   -2.2754   -1.8802 H   0  0  0  0  0  0  0  0  0  0  0  0
   -0.7543   -0.9761   -0.9952 H   0  0  0  0  0  0  0  0  0  0  0  0
   -2.2762    0.8429   -1.3670 H   0  0  0  0  0  0  0  0  0  0  0  0
   -1.4081    3.1200   -0.7234 H   0  0  0  0  0  0  0  0  0  0  0  0
   -2.2943    3.0216    0.7966 H   0  0  0  0  0  0  0  0  0  0  0  0
   -3.5136    4.0858   -0.7326 H   0  0  0  0  0  0  0  0  0  0  0  0
   -4.3075    0.7390    0.0887 H   0  0  0  0  0  0  0  0  0  0  0  0
   -3.3395   -1.4309   -0.5645 H   0  0  0  0  0  0  0  0  0  0  0  0
   -1.5954   -1.2469    1.9562 H   0  0  0  0  0  0  0  0  0  0  0  0
   -0.6594   -3.0743    0.9516 H   0  0  0  0  0  0  0  0  0  0  0  0
   -3.8334   -2.6094    1.3667 H   0  0  0  0  0  0  0  0  0  0  0  0
   -3.9245    0.2757    2.3135 H   0  0  0  0  0  0  0  0  0  0  0  0
  1  2  1  0
  2  3  1  0
  3  4  1  0
  4  5  1  0
  5  6  1  0
  6  7  1  0
  7  8  1  0
  6  9  1  0
  5 10  1  0
 10 11  1  0
  5 12  1  0
 12 13  1  0
 13 14  1  0
 14 15  1  0
 15 16  1  0
 16 17  1  0
 15 18  1  0
 18 19  1  0
 19 20  1  0
 20 21  1  0
 19 22  1  0
 18 23  1  0
  7  3  1  0
 20 13  1  0
  2 24  1  0
  2 25  1  0
  3 26  1  0
  6 27  1  0
  7 28  1  0
  8 29  1  0
  9 30  1  0
 10 31  1  0
 10 32  1  0
 13 33  1  0
 15 34  1  0
 16 35  1  0
 16 36  1  0
 17 37  1  0
 18 38  1  0
 19 39  1  0
 20 40  1  0
 21 41  1  0
 22 42  1  0
 23 43  1  0
M  END
