
     RDKit          3D

 24 24  0  0  0  0  0  0  0  0999 V2000
    2.6212   -1.5292   -1.4367 O   0  0  0  0  0  0  0  0  0  0  0  0
    2.1043   -0.1996   -1.3708 C   0  0  0  0  0  0  0  0  0  0  0  0
    1.2127   -0.0509   -0.1413 C   0  0  0  0  0  0  0  0  0  0  0  0
    0.1014   -0.9753   -0.2488 O   0  0  0  0  0  0  0  0  0  0  0  0
   -1.1025   -0.2353    0.0434 C   0  0  0  0  0  0  0  0  0  0  0  0
   -0.6723    1.0629    0.7347 C   0  0  0  0  0  0  0  0  0  0  0  0
    0.6230    1.3514   -0.0070 C   0  0  0  0  0  0  0  0  0  0  0  0
    1.4604    2.2279    0.7416 O   0  0  0  0  0  0  0  0  0  0  0  0
   -0.4044    0.8855    2.1321 O   0  0  0  0  0  0  0  0  0  0  0  0
   -1.7121    0.0723   -1.2110 O   0  0  0  0  0  0  0  0  0  0  0  0
   -2.0476   -1.1119    0.8749 C   0  0  0  0  0  0  0  0  0  0  0  0
   -2.4337   -2.2486    0.0813 O   0  0  0  0  0  0  0  0  0  0  0  0
    1.8555   -2.1178   -1.2958 H   0  0  0  0  0  0  0  0  0  0  0  0
    2.9487    0.4948   -1.3363 H   0  0  0  0  0  0  0  0  0  0  0  0
    1.5393   -0.0266   -2.2925 H   0  0  0  0  0  0  0  0  0  0  0  0
    1.7792   -0.3384    0.7531 H   0  0  0  0  0  0  0  0  0  0  0  0
   -1.3951    1.8776    0.6288 H   0  0  0  0  0  0  0  0  0  0  0  0
    0.4237    1.7909   -0.9919 H   0  0  0  0  0  0  0  0  0  0  0  0
    1.1187    3.1328    0.6168 H   0  0  0  0  0  0  0  0  0  0  0  0
    0.3908    1.4228    2.3281 H   0  0  0  0  0  0  0  0  0  0  0  0
   -2.2743   -0.7048   -1.4047 H   0  0  0  0  0  0  0  0  0  0  0  0
   -1.5727   -1.4879    1.7860 H   0  0  0  0  0  0  0  0  0  0  0  0
   -2.9638   -0.5718    1.1309 H   0  0  0  0  0  0  0  0  0  0  0  0
   -1.6006   -2.7207   -0.1150 H   0  0  0  0  0  0  0  0  0  0  0  0
  1  2  1  0
  2  3  1  0
  3  4  1  0
  4  5  1  0
  5  6  1  0
  6  7  1  0
  7  8  1  0
  6  9  1  0
  5 10  1  0
  5 11  1  0
 11 12  1  0
  7  3  1  0
  1 13  1  0
  2 14  1  0
  2 15  1  0
  3 16  1  0
  6 17  1  0
  7 18  1  0
  8 19  1  0
  9 20  1  0
 10 21  1  0
 11 22  1  0
 11 23  1  0
 12 24  1  0
M  END
