
     RDKit          3D

 30 30  0  0  0  0  0  0  0  0999 V2000
   -3.0477    2.5926    0.3712 C   0  0  0  0  0  0  0  0  0  0  0  0
   -1.9876    2.3552   -1.0760 S   0  0  0  0  0  0  0  0  0  0  0  0
   -1.8911    0.5249   -1.0860 C   0  0  0  0  0  0  0  0  0  0  0  0
   -1.0280   -0.0476    0.0405 C   0  0  0  0  0  0  0  0  0  0  0  0
    0.3568    0.3341   -0.1259 O   0  0  0  0  0  0  0  0  0  0  0  0
    1.1698   -0.8411   -0.0525 C   0  0  0  0  0  0  0  0  0  0  0  0
    0.2992   -1.8939    0.6459 C   0  0  0  0  0  0  0  0  0  0  0  0
   -1.0605   -1.5748    0.0516 C   0  0  0  0  0  0  0  0  0  0  0  0
   -2.1216   -2.0914    0.8451 O   0  0  0  0  0  0  0  0  0  0  0  0
    0.6819   -3.2386    0.3642 O   0  0  0  0  0  0  0  0  0  0  0  0
    1.4285   -1.3095   -1.3803 O   0  0  0  0  0  0  0  0  0  0  0  0
    2.4818   -0.5847    0.7060 C   0  0  0  0  0  0  0  0  0  0  0  0
    3.7035    0.4202   -0.2370 S   0  0  0  0  0  0  0  0  0  0  0  0
    2.8508    2.0203   -0.2508 C   0  0  0  0  0  0  0  0  0  0  0  0
   -2.5264    2.3039    1.2866 H   0  0  0  0  0  0  0  0  0  0  0  0
   -3.3110    3.6510    0.4488 H   0  0  0  0  0  0  0  0  0  0  0  0
   -3.9698    2.0145    0.2708 H   0  0  0  0  0  0  0  0  0  0  0  0
   -1.4586    0.2517   -2.0547 H   0  0  0  0  0  0  0  0  0  0  0  0
   -2.9086    0.1224   -1.0486 H   0  0  0  0  0  0  0  0  0  0  0  0
   -1.3617    0.3342    1.0123 H   0  0  0  0  0  0  0  0  0  0  0  0
    0.2778   -1.7614    1.7343 H   0  0  0  0  0  0  0  0  0  0  0  0
   -1.1607   -1.9965   -0.9560 H   0  0  0  0  0  0  0  0  0  0  0  0
   -1.9308   -3.0420    0.9670 H   0  0  0  0  0  0  0  0  0  0  0  0
    0.9919   -3.2328   -0.5663 H   0  0  0  0  0  0  0  0  0  0  0  0
    2.1736   -0.7593   -1.6946 H   0  0  0  0  0  0  0  0  0  0  0  0
    2.2959   -0.0926    1.6662 H   0  0  0  0  0  0  0  0  0  0  0  0
    2.9834   -1.5384    0.9019 H   0  0  0  0  0  0  0  0  0  0  0  0
    3.5672    2.7974   -0.5317 H   0  0  0  0  0  0  0  0  0  0  0  0
    2.4542    2.2601    0.7389 H   0  0  0  0  0  0  0  0  0  0  0  0
    2.0479    2.0220   -0.9910 H   0  0  0  0  0  0  0  0  0  0  0  0
  1  2  1  0
  2  3  1  0
  3  4  1  0
  4  5  1  0
  5  6  1  0
  6  7  1  0
  7  8  1  0
  8  9  1  0
  7 10  1  0
  6 11  1  0
  6 12  1  0
 12 13  1  0
 13 14  1  0
  8  4  1  0
  1 15  1  0
  1 16  1  0
  1 17  1  0
  3 18  1  0
  3 19  1  0
  4 20  1  0
  7 21  1  0
  8 22  1  0
  9 23  1  0
 10 24  1  0
 11 25  1  0
 12 26  1  0
 12 27  1  0
 14 28  1  0
 14 29  1  0
 14 30  1  0
M  END
