
     RDKit          3D

 13 12  0  0  0  0  0  0  0  0999 V2000
   -1.4591   -0.3843    0.4566 C   0  0  0  0  0  0  0  0  0  0  0  0
   -0.2571   -0.1798   -0.4549 C   0  0  0  0  0  0  0  0  0  0  0  0
    1.0459   -0.5078    0.2867 C   0  0  0  0  0  0  0  0  0  0  0  0
    1.2204   -1.4013    1.0994 O   0  0  0  0  0  0  0  0  0  0  0  0
    2.0798    0.2893   -0.0711 O   0  0  0  0  0  0  0  0  0  0  0  0
   -0.2540    1.2143   -0.9563 N   0  0  0  0  0  0  0  0  0  0  0  0
   -1.5145   -1.4238    0.7981 H   0  0  0  0  0  0  0  0  0  0  0  0
   -1.3993    0.2494    1.3489 H   0  0  0  0  0  0  0  0  0  0  0  0
   -2.3947   -0.1552   -0.0651 H   0  0  0  0  0  0  0  0  0  0  0  0
   -0.3190   -0.8542   -1.3156 H   0  0  0  0  0  0  0  0  0  0  0  0
    2.8302   -0.0544    0.4583 H   0  0  0  0  0  0  0  0  0  0  0  0
   -0.2222    1.8482   -0.1571 H   0  0  0  0  0  0  0  0  0  0  0  0
    0.6437    1.3595   -1.4279 H   0  0  0  0  0  0  0  0  0  0  0  0
  1  2  1  0
  2  3  1  0
  3  4  2  0
  3  5  1  0
  2  6  1  0
  1  7  1  0
  1  8  1  0
  1  9  1  0
  2 10  1  0
  5 11  1  0
  6 12  1  0
  6 13  1  0
M  END
