
     RDKit          3D

 17 16  0  0  0  0  0  0  0  0999 V2000
    2.4106    0.0393   -0.5532 N   0  0  0  0  0  0  0  0  0  0  0  0
    1.4404   -0.8820   -0.8103 C   0  0  0  0  0  0  0  0  0  0  0  0
    1.4076   -1.4916   -1.8730 O   0  0  0  0  0  0  0  0  0  0  0  0
    0.4082   -1.0650    0.2766 C   0  0  0  0  0  0  0  0  0  0  0  0
   -0.8108   -0.1951   -0.0160 C   0  0  0  0  0  0  0  0  0  0  0  0
   -0.5377    1.2703    0.3575 C   0  0  0  0  0  0  0  0  0  0  0  0
    0.5485    1.7902    0.5656 O   0  0  0  0  0  0  0  0  0  0  0  0
   -1.6684    2.0141    0.3968 O   0  0  0  0  0  0  0  0  0  0  0  0
   -1.9695   -0.6863    0.7700 N   0  0  0  0  0  0  0  0  0  0  0  0
    3.0284    0.2566   -1.3248 H   0  0  0  0  0  0  0  0  0  0  0  0
    2.2034    0.8082    0.0827 H   0  0  0  0  0  0  0  0  0  0  0  0
    0.1456   -2.1305    0.2850 H   0  0  0  0  0  0  0  0  0  0  0  0
    0.8502   -0.8384    1.2546 H   0  0  0  0  0  0  0  0  0  0  0  0
   -1.0657   -0.2153   -1.0823 H   0  0  0  0  0  0  0  0  0  0  0  0
   -1.3625    2.9075    0.6584 H   0  0  0  0  0  0  0  0  0  0  0  0
   -2.7338   -0.0166    0.6449 H   0  0  0  0  0  0  0  0  0  0  0  0
   -2.2944   -1.5652    0.3675 H   0  0  0  0  0  0  0  0  0  0  0  0
  1  2  1  0
  2  3  2  0
  2  4  1  0
  4  5  1  0
  5  6  1  0
  6  7  2  0
  6  8  1  0
  5  9  1  0
  1 10  1  0
  1 11  1  0
  4 12  1  0
  4 13  1  0
  5 14  1  0
  8 15  1  0
  9 16  1  0
  9 17  1  0
M  END
