
     RDKit          3D

 20 19  0  0  0  0  0  0  0  0999 V2000
    2.8932   -0.5477    1.1996 O   0  0  0  0  0  0  0  0  0  0  0  0
    2.1046    0.3338    0.5540 C   0  0  0  0  0  0  0  0  0  0  0  0
    2.0389    1.4953    0.9231 O   0  0  0  0  0  0  0  0  0  0  0  0
    1.4124   -0.2896   -0.6297 C   0  0  0  0  0  0  0  0  0  0  0  0
    0.2879    0.5892   -1.1860 C   0  0  0  0  0  0  0  0  0  0  0  0
   -1.0347    0.5117   -0.4057 C   0  0  0  0  0  0  0  0  0  0  0  0
   -1.7221   -0.8580   -0.6059 C   0  0  0  0  0  0  0  0  0  0  0  0
   -1.7919   -1.4427   -1.6812 O   0  0  0  0  0  0  0  0  0  0  0  0
   -2.3017   -1.3799    0.5186 N   0  0  0  0  0  0  0  0  0  0  0  0
   -0.8722    0.8063    1.0375 N   0  0  0  0  0  0  0  0  0  0  0  0
    3.2877   -0.0270    1.9298 H   0  0  0  0  0  0  0  0  0  0  0  0
    1.0296   -1.2759   -0.3479 H   0  0  0  0  0  0  0  0  0  0  0  0
    2.1747   -0.4246   -1.4057 H   0  0  0  0  0  0  0  0  0  0  0  0
    0.6177    1.6351   -1.2304 H   0  0  0  0  0  0  0  0  0  0  0  0
    0.1026    0.2842   -2.2240 H   0  0  0  0  0  0  0  0  0  0  0  0
   -1.7198    1.2594   -0.8248 H   0  0  0  0  0  0  0  0  0  0  0  0
   -1.8921   -1.0735    1.3960 H   0  0  0  0  0  0  0  0  0  0  0  0
   -2.6136   -2.3389    0.4518 H   0  0  0  0  0  0  0  0  0  0  0  0
   -1.7699    1.1415    1.3924 H   0  0  0  0  0  0  0  0  0  0  0  0
   -0.2311    1.6012    1.1386 H   0  0  0  0  0  0  0  0  0  0  0  0
  1  2  1  0
  2  3  2  0
  2  4  1  0
  4  5  1  0
  5  6  1  0
  6  7  1  0
  7  8  2  0
  7  9  1  0
  6 10  1  0
  1 11  1  0
  4 12  1  0
  4 13  1  0
  5 14  1  0
  5 15  1  0
  6 16  1  0
  9 17  1  0
  9 18  1  0
 10 19  1  0
 10 20  1  0
M  END
