
     RDKit          3D

 10  9  0  0  0  0  0  0  0  0999 V2000
   -1.6156    0.2991   -0.3391 N   0  0  0  0  0  0  0  0  0  0  0  0
   -0.3756   -0.4878   -0.4787 C   0  0  0  0  0  0  0  0  0  0  0  0
    0.7529    0.1186    0.3431 C   0  0  0  0  0  0  0  0  0  0  0  0
    0.6925    1.1196    1.0406 O   0  0  0  0  0  0  0  0  0  0  0  0
    1.9021   -0.5769    0.2380 O   0  0  0  0  0  0  0  0  0  0  0  0
   -1.4093    1.2648   -0.6042 H   0  0  0  0  0  0  0  0  0  0  0  0
   -1.8413    0.3606    0.6562 H   0  0  0  0  0  0  0  0  0  0  0  0
   -0.0790   -0.5037   -1.5313 H   0  0  0  0  0  0  0  0  0  0  0  0
   -0.5590   -1.5084   -0.1309 H   0  0  0  0  0  0  0  0  0  0  0  0
    2.5322   -0.0859    0.8063 H   0  0  0  0  0  0  0  0  0  0  0  0
  1  2  1  0
  2  3  1  0
  3  4  2  0
  3  5  1  0
  1  6  1  0
  1  7  1  0
  2  8  1  0
  2  9  1  0
  5 10  1  0
M  END
