
     RDKit          3D

 20 20  0  0  0  0  0  0  0  0999 V2000
   -1.4994   -1.6165   -0.9512 N   0  0  0  0  0  0  0  0  0  0  0  0
   -1.3763   -0.9625    0.3824 C   0  0  0  0  0  0  0  0  0  0  0  0
   -1.9245    0.4695    0.3626 C   0  0  0  0  0  0  0  0  0  0  0  0
   -1.7492    1.3290    1.2133 O   0  0  0  0  0  0  0  0  0  0  0  0
   -2.7345    0.7229   -0.6932 O   0  0  0  0  0  0  0  0  0  0  0  0
    0.0666   -0.9773    0.9094 C   0  0  0  0  0  0  0  0  0  0  0  0
    1.0308   -0.1360    0.1339 C   0  0  0  0  0  0  0  0  0  0  0  0
    2.1445    0.5350    0.5934 C   0  0  0  0  0  0  0  0  0  0  0  0
    2.6768    1.1493   -0.5055 N   0  0  0  0  0  0  0  0  0  0  0  0
    1.8884    0.8352   -1.5747 C   0  0  0  0  0  0  0  0  0  0  0  0
    0.8871    0.0623   -1.2229 N   0  0  0  0  0  0  0  0  0  0  0  0
   -2.3523   -1.2464   -1.3814 H   0  0  0  0  0  0  0  0  0  0  0  0
   -0.7451   -1.2138   -1.5277 H   0  0  0  0  0  0  0  0  0  0  0  0
   -2.0170   -1.5273    1.0696 H   0  0  0  0  0  0  0  0  0  0  0  0
   -2.9818    1.6625   -0.5689 H   0  0  0  0  0  0  0  0  0  0  0  0
    0.4410   -2.0090    0.9249 H   0  0  0  0  0  0  0  0  0  0  0  0
    0.0652   -0.6328    1.9523 H   0  0  0  0  0  0  0  0  0  0  0  0
    2.5845    0.6280    1.5762 H   0  0  0  0  0  0  0  0  0  0  0  0
    3.5018    1.7325   -0.5282 H   0  0  0  0  0  0  0  0  0  0  0  0
    2.0931    1.1953   -2.5741 H   0  0  0  0  0  0  0  0  0  0  0  0
  1  2  1  0
  2  3  1  0
  3  4  2  0
  3  5  1  0
  2  6  1  0
  6  7  1  0
  7  8  2  0
  8  9  1  0
  9 10  1  0
 10 11  2  0
 11  7  1  0
  1 12  1  0
  1 13  1  0
  2 14  1  0
  5 15  1  0
  6 16  1  0
  6 17  1  0
  8 18  1  0
  9 19  1  0
 10 20  1  0
M  END
