
     RDKit          3D

 20 19  0  0  0  0  0  0  0  0999 V2000
    3.3382    0.8009    0.7328 C   0  0  0  0  0  0  0  0  0  0  0  0
    1.8575   -0.1707    1.1036 S   0  0  0  0  0  0  0  0  0  0  0  0
    1.1494   -0.2347   -0.5758 C   0  0  0  0  0  0  0  0  0  0  0  0
   -0.1604   -1.0288   -0.6229 C   0  0  0  0  0  0  0  0  0  0  0  0
   -1.3244   -0.4131    0.1659 C   0  0  0  0  0  0  0  0  0  0  0  0
   -1.8399    0.8875   -0.4703 C   0  0  0  0  0  0  0  0  0  0  0  0
   -1.2961    1.5721   -1.3214 O   0  0  0  0  0  0  0  0  0  0  0  0
   -3.0284    1.2783    0.0523 O   0  0  0  0  0  0  0  0  0  0  0  0
   -2.4335   -1.3990    0.2129 N   0  0  0  0  0  0  0  0  0  0  0  0
    3.9670    0.2755    0.0093 H   0  0  0  0  0  0  0  0  0  0  0  0
    3.0608    1.7814    0.3373 H   0  0  0  0  0  0  0  0  0  0  0  0
    3.9125    0.9464    1.6515 H   0  0  0  0  0  0  0  0  0  0  0  0
    1.8789   -0.7251   -1.2295 H   0  0  0  0  0  0  0  0  0  0  0  0
    1.0114    0.7857   -0.9410 H   0  0  0  0  0  0  0  0  0  0  0  0
    0.0366   -2.0482   -0.2632 H   0  0  0  0  0  0  0  0  0  0  0  0
   -0.4527   -1.1294   -1.6772 H   0  0  0  0  0  0  0  0  0  0  0  0
   -1.0316   -0.1774    1.1939 H   0  0  0  0  0  0  0  0  0  0  0  0
   -3.2417    2.0928   -0.4488 H   0  0  0  0  0  0  0  0  0  0  0  0
   -3.2346   -0.9353    0.6497 H   0  0  0  0  0  0  0  0  0  0  0  0
   -2.1691   -2.1589    0.8384 H   0  0  0  0  0  0  0  0  0  0  0  0
  1  2  1  0
  2  3  1  0
  3  4  1  0
  4  5  1  0
  5  6  1  0
  6  7  2  0
  6  8  1  0
  5  9  1  0
  1 10  1  0
  1 11  1  0
  1 12  1  0
  3 13  1  0
  3 14  1  0
  4 15  1  0
  4 16  1  0
  5 17  1  0
  8 18  1  0
  9 19  1  0
  9 20  1  0
M  END
