
     RDKit          3D

 14 13  0  0  0  0  0  0  0  0999 V2000
   -2.1820   -0.7590    0.8577 O   0  0  0  0  0  0  0  0  0  0  0  0
   -0.7616   -0.9219    0.8266 C   0  0  0  0  0  0  0  0  0  0  0  0
   -0.1801   -0.1843   -0.3830 C   0  0  0  0  0  0  0  0  0  0  0  0
    1.3459   -0.2092   -0.3328 C   0  0  0  0  0  0  0  0  0  0  0  0
    2.0483   -1.1234    0.0659 O   0  0  0  0  0  0  0  0  0  0  0  0
    1.9141    0.9146   -0.8278 O   0  0  0  0  0  0  0  0  0  0  0  0
   -0.7132    1.2133   -0.4088 N   0  0  0  0  0  0  0  0  0  0  0  0
   -2.3431    0.1311    0.4796 H   0  0  0  0  0  0  0  0  0  0  0  0
   -0.3568   -0.5314    1.7671 H   0  0  0  0  0  0  0  0  0  0  0  0
   -0.5399   -1.9929    0.7823 H   0  0  0  0  0  0  0  0  0  0  0  0
   -0.5016   -0.6699   -1.3106 H   0  0  0  0  0  0  0  0  0  0  0  0
    2.8778    0.7426   -0.7602 H   0  0  0  0  0  0  0  0  0  0  0  0
   -0.2360    1.6916   -1.1802 H   0  0  0  0  0  0  0  0  0  0  0  0
   -0.3717    1.6986    0.4241 H   0  0  0  0  0  0  0  0  0  0  0  0
  1  2  1  0
  2  3  1  0
  3  4  1  0
  4  5  2  0
  4  6  1  0
  3  7  1  0
  1  8  1  0
  2  9  1  0
  2 10  1  0
  3 11  1  0
  6 12  1  0
  7 13  1  0
  7 14  1  0
M  END
