
     RDKit          3D

 17 16  0  0  0  0  0  0  0  0999 V2000
   -1.3318   -1.1309   -0.9148 C   0  0  0  0  0  0  0  0  0  0  0  0
   -0.8706    0.2413   -0.4461 C   0  0  0  0  0  0  0  0  0  0  0  0
    0.2322    0.1842    0.6283 C   0  0  0  0  0  0  0  0  0  0  0  0
    1.5719   -0.2102    0.0109 C   0  0  0  0  0  0  0  0  0  0  0  0
    2.4487    0.5593   -0.3533 O   0  0  0  0  0  0  0  0  0  0  0  0
    1.7409   -1.5407   -0.0982 O   0  0  0  0  0  0  0  0  0  0  0  0
    0.3496    1.5395    1.2599 N   0  0  0  0  0  0  0  0  0  0  0  0
   -2.0138    0.9220    0.0948 O   0  0  0  0  0  0  0  0  0  0  0  0
   -1.6822   -1.7351   -0.0708 H   0  0  0  0  0  0  0  0  0  0  0  0
   -0.5358   -1.6745   -1.4302 H   0  0  0  0  0  0  0  0  0  0  0  0
   -2.1794   -1.0331   -1.6021 H   0  0  0  0  0  0  0  0  0  0  0  0
   -0.5322    0.8222   -1.3127 H   0  0  0  0  0  0  0  0  0  0  0  0
   -0.0264   -0.5142    1.4317 H   0  0  0  0  0  0  0  0  0  0  0  0
    2.6349   -1.6452   -0.4885 H   0  0  0  0  0  0  0  0  0  0  0  0
    1.0523    1.4788    2.0006 H   0  0  0  0  0  0  0  0  0  0  0  0
    0.7796    2.1619    0.5661 H   0  0  0  0  0  0  0  0  0  0  0  0
   -1.6380    1.5747    0.7243 H   0  0  0  0  0  0  0  0  0  0  0  0
  1  2  1  0
  2  3  1  0
  3  4  1  0
  4  5  2  0
  4  6  1  0
  3  7  1  0
  2  8  1  0
  1  9  1  0
  1 10  1  0
  1 11  1  0
  2 12  1  0
  3 13  1  0
  6 14  1  0
  7 15  1  0
  7 16  1  0
  8 17  1  0
M  END
