
     RDKit          3D

 42 42  0  0  0  0  0  0  0  0999 V2000
    1.9334    3.7167    3.6030 C   0  0  0  0  0  0  0  0  0  0  0  0
    0.8983    2.8138    3.2120 O   0  0  0  0  0  0  0  0  0  0  0  0
    1.2878    1.8808    2.2975 C   0  0  0  0  0  0  0  0  0  0  0  0
    2.4229    1.7770    1.8433 O   0  0  0  0  0  0  0  0  0  0  0  0
    0.1282    0.9811    1.9115 C   0  0  0  0  0  0  0  0  0  0  0  0
   -0.5170    1.5124    0.6335 C   0  0  0  0  0  0  0  0  0  0  0  0
   -0.8597    2.6795    0.4768 O   0  0  0  0  0  0  0  0  0  0  0  0
   -0.6970    0.5304   -0.3000 O   0  0  0  0  0  0  0  0  0  0  0  0
   -1.3134    0.9451   -1.5193 C   0  0  0  0  0  0  0  0  0  0  0  0
   -0.3080    1.5697   -2.4802 C   0  0  0  0  0  0  0  0  0  0  0  0
   -0.9016    1.3492   -3.8687 C   0  0  0  0  0  0  0  0  0  0  0  0
   -1.9545    0.2509   -3.7146 C   0  0  0  0  0  0  0  0  0  0  0  0
   -1.7900   -0.2742   -2.2972 C   0  0  0  0  0  0  0  0  0  0  0  0
    0.6278   -0.3967    1.7949 N   0  0  0  0  0  0  0  0  0  0  0  0
   -0.2050   -1.4700    1.9823 C   0  0  0  0  0  0  0  0  0  0  0  0
   -1.3568   -1.3483    2.3963 O   0  0  0  0  0  0  0  0  0  0  0  0
    0.4086   -2.8461    1.6294 C   0  0  0  0  0  0  0  0  0  0  0  0
    0.2879   -3.1105    0.1278 C   0  0  0  0  0  0  0  0  0  0  0  0
    1.3373   -2.3610   -0.6424 C   0  0  0  0  0  0  0  0  0  0  0  0
    2.1116   -1.5260   -0.2033 O   0  0  0  0  0  0  0  0  0  0  0  0
    1.3461   -2.6881   -1.9479 O   0  0  0  0  0  0  0  0  0  0  0  0
   -0.3259   -3.8953    2.3792 N   0  0  0  0  0  0  0  0  0  0  0  0
    2.7550    3.1739    4.0807 H   0  0  0  0  0  0  0  0  0  0  0  0
    1.5144    4.4194    4.3284 H   0  0  0  0  0  0  0  0  0  0  0  0
    2.2930    4.2843    2.7389 H   0  0  0  0  0  0  0  0  0  0  0  0
   -0.6314    0.9954    2.7011 H   0  0  0  0  0  0  0  0  0  0  0  0
   -2.1635    1.6141   -1.3311 H   0  0  0  0  0  0  0  0  0  0  0  0
   -0.1399    2.6306   -2.2696 H   0  0  0  0  0  0  0  0  0  0  0  0
    0.6662    1.0718   -2.3970 H   0  0  0  0  0  0  0  0  0  0  0  0
   -0.1217    1.0586   -4.5805 H   0  0  0  0  0  0  0  0  0  0  0  0
   -1.3657    2.2667   -4.2470 H   0  0  0  0  0  0  0  0  0  0  0  0
   -1.8361   -0.5413   -4.4603 H   0  0  0  0  0  0  0  0  0  0  0  0
   -2.9555    0.6797   -3.8431 H   0  0  0  0  0  0  0  0  0  0  0  0
   -1.0420   -1.0749   -2.2650 H   0  0  0  0  0  0  0  0  0  0  0  0
   -2.7192   -0.6860   -1.8912 H   0  0  0  0  0  0  0  0  0  0  0  0
    1.4787   -0.5266    1.2419 H   0  0  0  0  0  0  0  0  0  0  0  0
    1.4533   -2.8668    1.9603 H   0  0  0  0  0  0  0  0  0  0  0  0
   -0.6981   -2.8158   -0.2486 H   0  0  0  0  0  0  0  0  0  0  0  0
    0.4429   -4.1773   -0.0755 H   0  0  0  0  0  0  0  0  0  0  0  0
    2.0655   -2.1502   -2.3409 H   0  0  0  0  0  0  0  0  0  0  0  0
   -0.2299   -3.6954    3.3775 H   0  0  0  0  0  0  0  0  0  0  0  0
   -1.3267   -3.7507    2.2068 H   0  0  0  0  0  0  0  0  0  0  0  0
  1  2  1  0
  2  3  1  0
  3  4  2  0
  3  5  1  0
  5  6  1  0
  6  7  2  0
  6  8  1  0
  8  9  1  0
  9 10  1  0
 10 11  1  0
 11 12  1  0
 12 13  1  0
  5 14  1  0
 14 15  1  0
 15 16  2  0
 15 17  1  0
 17 18  1  0
 18 19  1  0
 19 20  2  0
 19 21  1  0
 17 22  1  0
 13  9  1  0
  1 23  1  0
  1 24  1  0
  1 25  1  0
  5 26  1  0
  9 27  1  0
 10 28  1  0
 10 29  1  0
 11 30  1  0
 11 31  1  0
 12 32  1  0
 12 33  1  0
 13 34  1  0
 13 35  1  0
 14 36  1  0
 17 37  1  0
 18 38  1  0
 18 39  1  0
 21 40  1  0
 22 41  1  0
 22 42  1  0
M  END
