
     RDKit          3D

 24 24  0  0  0  0  0  0  0  0999 V2000
    3.0362   -1.6849    0.5097 O   0  0  0  0  0  0  0  0  0  0  0  0
    2.3874   -0.4806    0.9265 C   0  0  0  0  0  0  0  0  0  0  0  0
    1.2052   -0.1888   -0.0038 C   0  0  0  0  0  0  0  0  0  0  0  0
    0.3380   -1.3433    0.0191 O   0  0  0  0  0  0  0  0  0  0  0  0
   -0.7671   -1.1935   -0.8597 C   0  0  0  0  0  0  0  0  0  0  0  0
   -1.5695   -2.3634   -0.7737 O   0  0  0  0  0  0  0  0  0  0  0  0
   -1.6392    0.0046   -0.4537 C   0  0  0  0  0  0  0  0  0  0  0  0
   -0.7879    1.2699   -0.4445 C   0  0  0  0  0  0  0  0  0  0  0  0
    0.4516    1.0754    0.4324 C   0  0  0  0  0  0  0  0  0  0  0  0
    1.2828    2.2321    0.3294 O   0  0  0  0  0  0  0  0  0  0  0  0
   -1.5468    2.3815    0.0566 O   0  0  0  0  0  0  0  0  0  0  0  0
   -2.7376    0.1830   -1.3601 O   0  0  0  0  0  0  0  0  0  0  0  0
    2.3269   -2.3520    0.4448 H   0  0  0  0  0  0  0  0  0  0  0  0
    3.1242    0.3275    0.9106 H   0  0  0  0  0  0  0  0  0  0  0  0
    2.0510   -0.6337    1.9573 H   0  0  0  0  0  0  0  0  0  0  0  0
    1.5976   -0.0786   -1.0238 H   0  0  0  0  0  0  0  0  0  0  0  0
   -0.4264   -1.1028   -1.8984 H   0  0  0  0  0  0  0  0  0  0  0  0
   -0.9964   -3.0837   -1.0877 H   0  0  0  0  0  0  0  0  0  0  0  0
   -2.0787   -0.1566    0.5387 H   0  0  0  0  0  0  0  0  0  0  0  0
   -0.4953    1.5478   -1.4648 H   0  0  0  0  0  0  0  0  0  0  0  0
    0.1413    0.9908    1.4816 H   0  0  0  0  0  0  0  0  0  0  0  0
    0.6815    2.9944    0.4585 H   0  0  0  0  0  0  0  0  0  0  0  0
   -2.4000    2.3449   -0.4226 H   0  0  0  0  0  0  0  0  0  0  0  0
   -3.1788   -0.6902   -1.3975 H   0  0  0  0  0  0  0  0  0  0  0  0
  1  2  1  0
  2  3  1  0
  3  4  1  0
  4  5  1  0
  5  6  1  0
  5  7  1  0
  7  8  1  0
  8  9  1  0
  9 10  1  0
  8 11  1  0
  7 12  1  0
  9  3  1  0
  1 13  1  0
  2 14  1  0
  2 15  1  0
  3 16  1  0
  5 17  1  0
  6 18  1  0
  7 19  1  0
  8 20  1  0
  9 21  1  0
 10 22  1  0
 11 23  1  0
 12 24  1  0
M  END
