
     RDKit          3D

 42 43  0  0  0  0  0  0  0  0999 V2000
    4.1615    1.5656   -2.4724 Cl  0  0  0  0  0  0  0  0  0  0  0  0
    3.4705    0.1692   -1.5975 C   0  0  0  0  0  0  0  0  0  0  0  0
    3.5818    0.3706   -0.0814 C   0  0  0  0  0  0  0  0  0  0  0  0
    2.6707    1.3976    0.3562 O   0  0  0  0  0  0  0  0  0  0  0  0
    1.4577    0.7862    0.8860 C   0  0  0  0  0  0  0  0  0  0  0  0
    1.6771   -0.7397    0.7427 C   0  0  0  0  0  0  0  0  0  0  0  0
    3.1907   -0.8530    0.7359 C   0  0  0  0  0  0  0  0  0  0  0  0
    3.6100   -2.1003    0.2066 O   0  0  0  0  0  0  0  0  0  0  0  0
    1.1059   -1.5247    1.7883 O   0  0  0  0  0  0  0  0  0  0  0  0
    1.3411    1.2213    2.3676 C   0  0  0  0  0  0  0  0  0  0  0  0
    0.9810    2.9682    2.5399 Cl  0  0  0  0  0  0  0  0  0  0  0  0
    0.3738    1.2470    0.0724 O   0  0  0  0  0  0  0  0  0  0  0  0
   -0.9242    0.7531    0.3960 C   0  0  0  0  0  0  0  0  0  0  0  0
   -1.1082   -0.5196   -0.2176 O   0  0  0  0  0  0  0  0  0  0  0  0
   -2.4094   -1.0842    0.0424 C   0  0  0  0  0  0  0  0  0  0  0  0
   -2.3965   -2.4769   -0.6026 C   0  0  0  0  0  0  0  0  0  0  0  0
   -2.1306   -2.3778   -2.0008 O   0  0  0  0  0  0  0  0  0  0  0  0
   -3.5285   -0.1801   -0.5080 C   0  0  0  0  0  0  0  0  0  0  0  0
   -3.3640    1.2563    0.0168 C   0  0  0  0  0  0  0  0  0  0  0  0
   -1.9339    1.7572   -0.1893 C   0  0  0  0  0  0  0  0  0  0  0  0
   -1.7187    1.9241   -1.6080 O   0  0  0  0  0  0  0  0  0  0  0  0
   -4.2585    2.1525   -0.6575 O   0  0  0  0  0  0  0  0  0  0  0  0
   -5.1388   -0.8169   -0.0183 Cl  0  0  0  0  0  0  0  0  0  0  0  0
    4.0270   -0.7115   -1.9285 H   0  0  0  0  0  0  0  0  0  0  0  0
    2.4308    0.0842   -1.9252 H   0  0  0  0  0  0  0  0  0  0  0  0
    4.6029    0.6764    0.1741 H   0  0  0  0  0  0  0  0  0  0  0  0
    1.2723   -1.1204   -0.2017 H   0  0  0  0  0  0  0  0  0  0  0  0
    3.5695   -0.7792    1.7629 H   0  0  0  0  0  0  0  0  0  0  0  0
    4.5738   -2.1739    0.3372 H   0  0  0  0  0  0  0  0  0  0  0  0
    1.3838   -2.4449    1.6073 H   0  0  0  0  0  0  0  0  0  0  0  0
    2.2793    1.0460    2.9031 H   0  0  0  0  0  0  0  0  0  0  0  0
    0.5400    0.6979    2.8947 H   0  0  0  0  0  0  0  0  0  0  0  0
   -1.0704    0.6719    1.4775 H   0  0  0  0  0  0  0  0  0  0  0  0
   -2.5152   -1.2069    1.1285 H   0  0  0  0  0  0  0  0  0  0  0  0
   -1.5947   -3.0839   -0.1684 H   0  0  0  0  0  0  0  0  0  0  0  0
   -3.3398   -3.0113   -0.4638 H   0  0  0  0  0  0  0  0  0  0  0  0
   -1.3473   -1.8011   -2.0866 H   0  0  0  0  0  0  0  0  0  0  0  0
   -3.5241   -0.1674   -1.6036 H   0  0  0  0  0  0  0  0  0  0  0  0
   -3.6057    1.2950    1.0860 H   0  0  0  0  0  0  0  0  0  0  0  0
   -1.8007    2.7507    0.2533 H   0  0  0  0  0  0  0  0  0  0  0  0
   -0.7508    2.0408   -1.7058 H   0  0  0  0  0  0  0  0  0  0  0  0
   -3.8414    2.3420   -1.5238 H   0  0  0  0  0  0  0  0  0  0  0  0
  1  2  1  0
  2  3  1  0
  3  4  1  0
  4  5  1  0
  5  6  1  0
  6  7  1  0
  7  8  1  0
  6  9  1  0
  5 10  1  0
 10 11  1  0
  5 12  1  0
 12 13  1  0
 13 14  1  0
 14 15  1  0
 15 16  1  0
 16 17  1  0
 15 18  1  0
 18 19  1  0
 19 20  1  0
 20 21  1  0
 19 22  1  0
 18 23  1  0
  7  3  1  0
 20 13  1  0
  2 24  1  0
  2 25  1  0
  3 26  1  0
  6 27  1  0
  7 28  1  0
  8 29  1  0
  9 30  1  0
 10 31  1  0
 10 32  1  0
 13 33  1  0
 15 34  1  0
 16 35  1  0
 16 36  1  0
 17 37  1  0
 18 38  1  0
 19 39  1  0
 20 40  1  0
 21 41  1  0
 22 42  1  0
M  END
