
     RDKit          3D

 45 45  0  0  0  0  0  0  0  0999 V2000
    0.6881    2.9427   -3.9989 C   0  0  0  0  0  0  0  0  0  0  0  0
    0.3135    2.8116   -2.6276 O   0  0  0  0  0  0  0  0  0  0  0  0
    0.1554    1.5229   -2.2115 C   0  0  0  0  0  0  0  0  0  0  0  0
    0.3185    0.5337   -2.9203 O   0  0  0  0  0  0  0  0  0  0  0  0
   -0.2344    1.4722   -0.7413 C   0  0  0  0  0  0  0  0  0  0  0  0
    1.0286    1.3613    0.1040 C   0  0  0  0  0  0  0  0  0  0  0  0
    1.9647    2.1506    0.0451 O   0  0  0  0  0  0  0  0  0  0  0  0
    0.9871    0.2824    0.9404 O   0  0  0  0  0  0  0  0  0  0  0  0
    2.1342    0.0798    1.7865 C   0  0  0  0  0  0  0  0  0  0  0  0
    3.2263   -0.6622    1.0101 C   0  0  0  0  0  0  0  0  0  0  0  0
    4.3969   -1.0442    1.9102 C   0  0  0  0  0  0  0  0  0  0  0  0
    3.9353   -1.8499    3.1216 C   0  0  0  0  0  0  0  0  0  0  0  0
    2.8388   -1.1246    3.8968 C   0  0  0  0  0  0  0  0  0  0  0  0
    1.6723   -0.7436    2.9917 C   0  0  0  0  0  0  0  0  0  0  0  0
   -1.1676    0.3593   -0.5350 N   0  0  0  0  0  0  0  0  0  0  0  0
   -2.4866    0.4606   -0.9138 C   0  0  0  0  0  0  0  0  0  0  0  0
   -2.9978    1.5146   -1.2748 O   0  0  0  0  0  0  0  0  0  0  0  0
   -3.2367   -0.8883   -0.8267 C   0  0  0  0  0  0  0  0  0  0  0  0
   -4.5528   -0.8287   -1.5988 C   0  0  0  0  0  0  0  0  0  0  0  0
   -5.5590    0.0097   -0.8602 C   0  0  0  0  0  0  0  0  0  0  0  0
   -5.6032    0.2141    0.3409 O   0  0  0  0  0  0  0  0  0  0  0  0
   -6.5136    0.4960   -1.6769 O   0  0  0  0  0  0  0  0  0  0  0  0
   -2.3409   -1.9513   -1.3620 N   0  0  0  0  0  0  0  0  0  0  0  0
   -0.0828    2.5174   -4.6491 H   0  0  0  0  0  0  0  0  0  0  0  0
    0.7818    4.0085   -4.2244 H   0  0  0  0  0  0  0  0  0  0  0  0
    1.6557    2.4639   -4.1789 H   0  0  0  0  0  0  0  0  0  0  0  0
   -0.7570    2.3932   -0.4597 H   0  0  0  0  0  0  0  0  0  0  0  0
    2.5114    1.0447    2.1500 H   0  0  0  0  0  0  0  0  0  0  0  0
    2.8019   -1.5624    0.5466 H   0  0  0  0  0  0  0  0  0  0  0  0
    3.5861   -0.0444    0.1791 H   0  0  0  0  0  0  0  0  0  0  0  0
    4.9073   -0.1346    2.2499 H   0  0  0  0  0  0  0  0  0  0  0  0
    5.1280   -1.6261    1.3378 H   0  0  0  0  0  0  0  0  0  0  0  0
    4.7877   -2.0441    3.7823 H   0  0  0  0  0  0  0  0  0  0  0  0
    3.5606   -2.8255    2.7881 H   0  0  0  0  0  0  0  0  0  0  0  0
    2.4804   -1.7623    4.7126 H   0  0  0  0  0  0  0  0  0  0  0  0
    3.2544   -0.2197    4.3569 H   0  0  0  0  0  0  0  0  0  0  0  0
    0.9251   -0.1770    3.5606 H   0  0  0  0  0  0  0  0  0  0  0  0
    1.1568   -1.6495    2.6463 H   0  0  0  0  0  0  0  0  0  0  0  0
   -0.7957   -0.5896   -0.5554 H   0  0  0  0  0  0  0  0  0  0  0  0
   -3.4081   -1.0978    0.2356 H   0  0  0  0  0  0  0  0  0  0  0  0
   -4.9873   -1.8287   -1.7102 H   0  0  0  0  0  0  0  0  0  0  0  0
   -4.3944   -0.4047   -2.5976 H   0  0  0  0  0  0  0  0  0  0  0  0
   -7.0816    1.0352   -1.0873 H   0  0  0  0  0  0  0  0  0  0  0  0
   -2.1663   -1.7691   -2.3540 H   0  0  0  0  0  0  0  0  0  0  0  0
   -2.8307   -2.8461   -1.3284 H   0  0  0  0  0  0  0  0  0  0  0  0
  1  2  1  0
  2  3  1  0
  3  4  2  0
  3  5  1  0
  5  6  1  0
  6  7  2  0
  6  8  1  0
  8  9  1  0
  9 10  1  0
 10 11  1  0
 11 12  1  0
 12 13  1  0
 13 14  1  0
  5 15  1  0
 15 16  1  0
 16 17  2  0
 16 18  1  0
 18 19  1  0
 19 20  1  0
 20 21  2  0
 20 22  1  0
 18 23  1  0
 14  9  1  0
  1 24  1  0
  1 25  1  0
  1 26  1  0
  5 27  1  0
  9 28  1  0
 10 29  1  0
 10 30  1  0
 11 31  1  0
 11 32  1  0
 12 33  1  0
 12 34  1  0
 13 35  1  0
 13 36  1  0
 14 37  1  0
 14 38  1  0
 15 39  1  0
 18 40  1  0
 19 41  1  0
 19 42  1  0
 22 43  1  0
 23 44  1  0
 23 45  1  0
M  END
