
     RDKit          3D

 55 56  0  0  0  0  0  0  0  0999 V2000
    2.5472   -3.9721   -2.0428 C   0  0  0  0  0  0  0  0  0  0  0  0
    2.4567   -3.0101   -0.9908 O   0  0  0  0  0  0  0  0  0  0  0  0
    1.2033   -2.5018   -0.7989 C   0  0  0  0  0  0  0  0  0  0  0  0
    0.2204   -2.8420   -1.4470 O   0  0  0  0  0  0  0  0  0  0  0  0
    1.1707   -1.4875    0.3381 C   0  0  0  0  0  0  0  0  0  0  0  0
    0.4865   -0.2178   -0.1466 C   0  0  0  0  0  0  0  0  0  0  0  0
    1.0655    0.7045   -0.7123 O   0  0  0  0  0  0  0  0  0  0  0  0
   -0.8473   -0.2634    0.1220 O   0  0  0  0  0  0  0  0  0  0  0  0
   -1.6398    0.8474   -0.3106 C   0  0  0  0  0  0  0  0  0  0  0  0
   -2.3687    0.5407   -1.6525 C   0  0  0  0  0  0  0  0  0  0  0  0
   -1.4761    0.6106   -2.8760 C   0  0  0  0  0  0  0  0  0  0  0  0
   -3.1564   -0.7877   -1.5530 C   0  0  0  0  0  0  0  0  0  0  0  0
   -4.3588   -0.4111   -0.6765 C   0  0  0  0  0  0  0  0  0  0  0  0
   -4.0585    1.0474   -0.2856 C   0  0  0  0  0  0  0  0  0  0  0  0
   -2.8242    1.1407    0.6706 C   0  0  0  0  0  0  0  0  0  0  0  0
   -2.7049    2.5746    1.2313 C   0  0  0  0  0  0  0  0  0  0  0  0
   -2.8979    0.1887    1.8741 C   0  0  0  0  0  0  0  0  0  0  0  0
   -3.5004    1.5727   -1.6176 C   0  0  0  0  0  0  0  0  0  0  0  0
    2.5056   -1.1383    0.8440 N   0  0  0  0  0  0  0  0  0  0  0  0
    2.6655   -0.5806    2.0867 C   0  0  0  0  0  0  0  0  0  0  0  0
    1.7432   -0.4999    2.8967 O   0  0  0  0  0  0  0  0  0  0  0  0
    4.0876   -0.0503    2.3876 C   0  0  0  0  0  0  0  0  0  0  0  0
    4.2672    1.3460    1.7890 C   0  0  0  0  0  0  0  0  0  0  0  0
    4.4638    1.2817    0.3003 C   0  0  0  0  0  0  0  0  0  0  0  0
    4.4918    0.2751   -0.3906 O   0  0  0  0  0  0  0  0  0  0  0  0
    4.5978    2.5036   -0.2475 O   0  0  0  0  0  0  0  0  0  0  0  0
    4.2692    0.0108    3.8592 N   0  0  0  0  0  0  0  0  0  0  0  0
    1.9204   -4.8413   -1.8206 H   0  0  0  0  0  0  0  0  0  0  0  0
    2.2619   -3.5217   -2.9993 H   0  0  0  0  0  0  0  0  0  0  0  0
    3.5874   -4.3034   -2.1113 H   0  0  0  0  0  0  0  0  0  0  0  0
    0.6060   -1.9235    1.1695 H   0  0  0  0  0  0  0  0  0  0  0  0
   -1.0228    1.7498   -0.4160 H   0  0  0  0  0  0  0  0  0  0  0  0
   -2.0601    0.4995   -3.7959 H   0  0  0  0  0  0  0  0  0  0  0  0
   -0.9554    1.5724   -2.9304 H   0  0  0  0  0  0  0  0  0  0  0  0
   -0.7230   -0.1830   -2.8624 H   0  0  0  0  0  0  0  0  0  0  0  0
   -3.5071   -1.1243   -2.5358 H   0  0  0  0  0  0  0  0  0  0  0  0
   -2.5702   -1.6010   -1.1146 H   0  0  0  0  0  0  0  0  0  0  0  0
   -4.4939   -1.0868    0.1711 H   0  0  0  0  0  0  0  0  0  0  0  0
   -5.2790   -0.4591   -1.2723 H   0  0  0  0  0  0  0  0  0  0  0  0
   -4.9412    1.5798    0.0778 H   0  0  0  0  0  0  0  0  0  0  0  0
   -2.6478    3.3314    0.4427 H   0  0  0  0  0  0  0  0  0  0  0  0
   -3.5689    2.8206    1.8591 H   0  0  0  0  0  0  0  0  0  0  0  0
   -1.8030    2.6780    1.8458 H   0  0  0  0  0  0  0  0  0  0  0  0
   -3.8223    0.3481    2.4403 H   0  0  0  0  0  0  0  0  0  0  0  0
   -2.8625   -0.8655    1.5835 H   0  0  0  0  0  0  0  0  0  0  0  0
   -2.0559    0.3552    2.5566 H   0  0  0  0  0  0  0  0  0  0  0  0
   -4.2069    1.4696   -2.4497 H   0  0  0  0  0  0  0  0  0  0  0  0
   -3.1471    2.6073   -1.5825 H   0  0  0  0  0  0  0  0  0  0  0  0
    3.2327   -0.9833    0.1434 H   0  0  0  0  0  0  0  0  0  0  0  0
    4.8234   -0.7577    1.9882 H   0  0  0  0  0  0  0  0  0  0  0  0
    5.1597    1.8239    2.2098 H   0  0  0  0  0  0  0  0  0  0  0  0
    3.3919    1.9747    1.9953 H   0  0  0  0  0  0  0  0  0  0  0  0
    4.6692    2.3466   -1.2127 H   0  0  0  0  0  0  0  0  0  0  0  0
    4.1248   -0.9293    4.2348 H   0  0  0  0  0  0  0  0  0  0  0  0
    3.4805    0.5415    4.2450 H   0  0  0  0  0  0  0  0  0  0  0  0
  1  2  1  0
  2  3  1  0
  3  4  2  0
  3  5  1  0
  5  6  1  0
  6  7  2  0
  6  8  1  0
  8  9  1  0
  9 10  1  0
 10 11  1  0
 10 12  1  0
 12 13  1  0
 13 14  1  0
 14 15  1  0
 15 16  1  0
 15 17  1  0
 14 18  1  0
  5 19  1  0
 19 20  1  0
 20 21  2  0
 20 22  1  0
 22 23  1  0
 23 24  1  0
 24 25  2  0
 24 26  1  0
 22 27  1  0
 15  9  1  0
 18 10  1  0
  1 28  1  0
  1 29  1  0
  1 30  1  0
  5 31  1  0
  9 32  1  0
 11 33  1  0
 11 34  1  0
 11 35  1  0
 12 36  1  0
 12 37  1  0
 13 38  1  0
 13 39  1  0
 14 40  1  0
 16 41  1  0
 16 42  1  0
 16 43  1  0
 17 44  1  0
 17 45  1  0
 17 46  1  0
 18 47  1  0
 18 48  1  0
 19 49  1  0
 22 50  1  0
 23 51  1  0
 23 52  1  0
 26 53  1  0
 27 54  1  0
 27 55  1  0
M  END
