
     RDKit          3D

 39 38  0  0  0  0  0  0  0  0999 V2000
   -0.2678   -2.1491    1.4714 C   0  0  0  0  0  0  0  0  0  0  0  0
    0.1824   -0.8283    0.8484 C   0  0  0  0  0  0  0  0  0  0  0  0
   -0.9388   -0.1534    0.2480 N   0  0  0  0  0  0  0  0  0  0  0  0
   -1.7891    0.6294    0.9973 C   0  0  0  0  0  0  0  0  0  0  0  0
   -1.5759    0.8770    2.1809 O   0  0  0  0  0  0  0  0  0  0  0  0
   -3.0190    1.1671    0.2401 C   0  0  0  0  0  0  0  0  0  0  0  0
   -3.8387    2.0732    1.1752 C   0  0  0  0  0  0  0  0  0  0  0  0
   -2.5683    1.9911   -0.9754 C   0  0  0  0  0  0  0  0  0  0  0  0
   -3.9053   -0.0023   -0.2138 C   0  0  0  0  0  0  0  0  0  0  0  0
    1.1509   -1.0191   -0.1971 N   0  0  0  0  0  0  0  0  0  0  0  0
    2.4461   -1.3888    0.0864 C   0  0  0  0  0  0  0  0  0  0  0  0
    2.8275   -1.7313    1.2035 O   0  0  0  0  0  0  0  0  0  0  0  0
    3.4050   -1.3450   -1.1290 C   0  0  0  0  0  0  0  0  0  0  0  0
    3.9775    0.0621   -1.3040 C   0  0  0  0  0  0  0  0  0  0  0  0
    2.9821    0.9790   -1.9571 C   0  0  0  0  0  0  0  0  0  0  0  0
    1.8085    0.7373   -2.1936 O   0  0  0  0  0  0  0  0  0  0  0  0
    3.5154    2.1775   -2.2580 O   0  0  0  0  0  0  0  0  0  0  0  0
    4.5106   -2.3056   -0.8912 N   0  0  0  0  0  0  0  0  0  0  0  0
    0.5636   -2.6781    1.9467 H   0  0  0  0  0  0  0  0  0  0  0  0
   -0.6940   -2.8164    0.7132 H   0  0  0  0  0  0  0  0  0  0  0  0
   -1.0361   -1.9822    2.2341 H   0  0  0  0  0  0  0  0  0  0  0  0
    0.6252   -0.1886    1.6209 H   0  0  0  0  0  0  0  0  0  0  0  0
   -1.2540   -0.5053   -0.6426 H   0  0  0  0  0  0  0  0  0  0  0  0
   -4.7206    2.4779    0.6660 H   0  0  0  0  0  0  0  0  0  0  0  0
   -3.2407    2.9203    1.5313 H   0  0  0  0  0  0  0  0  0  0  0  0
   -4.1861    1.5234    2.0576 H   0  0  0  0  0  0  0  0  0  0  0  0
   -2.0448    1.3757   -1.7153 H   0  0  0  0  0  0  0  0  0  0  0  0
   -1.8822    2.7912   -0.6745 H   0  0  0  0  0  0  0  0  0  0  0  0
   -3.4244    2.4524   -1.4805 H   0  0  0  0  0  0  0  0  0  0  0  0
   -3.4039   -0.6347   -0.9542 H   0  0  0  0  0  0  0  0  0  0  0  0
   -4.8342    0.3590   -0.6695 H   0  0  0  0  0  0  0  0  0  0  0  0
   -4.1724   -0.6440    0.6338 H   0  0  0  0  0  0  0  0  0  0  0  0
    1.0234   -0.4334   -1.0184 H   0  0  0  0  0  0  0  0  0  0  0  0
    2.8641   -1.6735   -2.0240 H   0  0  0  0  0  0  0  0  0  0  0  0
    4.8575    0.0266   -1.9580 H   0  0  0  0  0  0  0  0  0  0  0  0
    4.2673    0.4951   -0.3397 H   0  0  0  0  0  0  0  0  0  0  0  0
    2.7894    2.6971   -2.6620 H   0  0  0  0  0  0  0  0  0  0  0  0
    4.8991   -2.0987    0.0360 H   0  0  0  0  0  0  0  0  0  0  0  0
    4.1006   -3.2343   -0.7673 H   0  0  0  0  0  0  0  0  0  0  0  0
  1  2  1  0
  2  3  1  0
  3  4  1  0
  4  5  2  0
  4  6  1  0
  6  7  1  0
  6  8  1  0
  6  9  1  0
  2 10  1  0
 10 11  1  0
 11 12  2  0
 11 13  1  0
 13 14  1  0
 14 15  1  0
 15 16  2  0
 15 17  1  0
 13 18  1  0
  1 19  1  0
  1 20  1  0
  1 21  1  0
  2 22  1  0
  3 23  1  0
  7 24  1  0
  7 25  1  0
  7 26  1  0
  8 27  1  0
  8 28  1  0
  8 29  1  0
  9 30  1  0
  9 31  1  0
  9 32  1  0
 10 33  1  0
 13 34  1  0
 14 35  1  0
 14 36  1  0
 17 37  1  0
 18 38  1  0
 18 39  1  0
M  END
