
     RDKit          3D

 44 45  0  0  0  0  0  0  0  0999 V2000
    0.6776   -0.2784    2.8165 C   0  0  0  0  0  0  0  0  0  0  0  0
    0.8117    0.1848    1.3653 C   0  0  0  0  0  0  0  0  0  0  0  0
   -0.4076    0.0254    0.6208 N   0  0  0  0  0  0  0  0  0  0  0  0
   -1.4997    0.8349    0.8663 C   0  0  0  0  0  0  0  0  0  0  0  0
   -1.5531    1.6303    1.8013 O   0  0  0  0  0  0  0  0  0  0  0  0
   -2.6557    0.6489   -0.1342 C   0  0  0  0  0  0  0  0  0  0  0  0
   -2.9309    1.9485   -0.8608 C   0  0  0  0  0  0  0  0  0  0  0  0
   -3.5656    1.9502   -2.2299 C   0  0  0  0  0  0  0  0  0  0  0  0
   -2.1204    2.3358   -2.0748 C   0  0  0  0  0  0  0  0  0  0  0  0
   -3.8988    0.1684    0.5865 C   0  0  0  0  0  0  0  0  0  0  0  0
   -4.9613   -0.6172   -0.1435 C   0  0  0  0  0  0  0  0  0  0  0  0
   -4.0931   -1.3016    0.8759 C   0  0  0  0  0  0  0  0  0  0  0  0
    1.8091   -0.5959    0.6849 N   0  0  0  0  0  0  0  0  0  0  0  0
    3.1528   -0.3159    0.8204 C   0  0  0  0  0  0  0  0  0  0  0  0
    3.5936    0.7108    1.3233 O   0  0  0  0  0  0  0  0  0  0  0  0
    4.0632   -1.4044    0.2165 C   0  0  0  0  0  0  0  0  0  0  0  0
    4.2336   -1.1485   -1.2760 C   0  0  0  0  0  0  0  0  0  0  0  0
    5.0829    0.0732   -1.4747 C   0  0  0  0  0  0  0  0  0  0  0  0
    6.2371    0.2095   -1.1044 O   0  0  0  0  0  0  0  0  0  0  0  0
    4.4389    1.0566   -2.1276 O   0  0  0  0  0  0  0  0  0  0  0  0
    3.4302   -2.7371    0.4409 N   0  0  0  0  0  0  0  0  0  0  0  0
    1.6330   -0.1950    3.3459 H   0  0  0  0  0  0  0  0  0  0  0  0
   -0.0593    0.3139    3.3668 H   0  0  0  0  0  0  0  0  0  0  0  0
    0.3623   -1.3271    2.8670 H   0  0  0  0  0  0  0  0  0  0  0  0
    1.1000    1.2429    1.3426 H   0  0  0  0  0  0  0  0  0  0  0  0
   -0.2843   -0.2898   -0.3295 H   0  0  0  0  0  0  0  0  0  0  0  0
   -2.3602   -0.1122   -0.8708 H   0  0  0  0  0  0  0  0  0  0  0  0
   -3.2116    2.7456   -0.1769 H   0  0  0  0  0  0  0  0  0  0  0  0
   -3.7883    1.0020   -2.7061 H   0  0  0  0  0  0  0  0  0  0  0  0
   -4.2829    2.7338   -2.4491 H   0  0  0  0  0  0  0  0  0  0  0  0
   -1.8575    3.3823   -2.1924 H   0  0  0  0  0  0  0  0  0  0  0  0
   -1.3698    1.6487   -2.4504 H   0  0  0  0  0  0  0  0  0  0  0  0
   -4.2285    0.8733    1.3459 H   0  0  0  0  0  0  0  0  0  0  0  0
   -5.9972   -0.4254    0.1167 H   0  0  0  0  0  0  0  0  0  0  0  0
   -4.8066   -0.8635   -1.1887 H   0  0  0  0  0  0  0  0  0  0  0  0
   -4.5410   -1.5729    1.8275 H   0  0  0  0  0  0  0  0  0  0  0  0
   -3.3517   -2.0094    0.5189 H   0  0  0  0  0  0  0  0  0  0  0  0
    1.6163   -1.5790    0.5125 H   0  0  0  0  0  0  0  0  0  0  0  0
    5.0205   -1.3841    0.7489 H   0  0  0  0  0  0  0  0  0  0  0  0
    3.2680   -1.0155   -1.7782 H   0  0  0  0  0  0  0  0  0  0  0  0
    4.7427   -1.9814   -1.7755 H   0  0  0  0  0  0  0  0  0  0  0  0
    5.0730    1.8046   -2.1316 H   0  0  0  0  0  0  0  0  0  0  0  0
    4.0459   -3.4536    0.0495 H   0  0  0  0  0  0  0  0  0  0  0  0
    3.4325   -2.9166    1.4492 H   0  0  0  0  0  0  0  0  0  0  0  0
  1  2  1  0
  2  3  1  0
  3  4  1  0
  4  5  2  0
  4  6  1  0
  6  7  1  0
  7  8  1  0
  8  9  1  0
  6 10  1  0
 10 11  1  0
 11 12  1  0
  2 13  1  0
 13 14  1  0
 14 15  2  0
 14 16  1  0
 16 17  1  0
 17 18  1  0
 18 19  2  0
 18 20  1  0
 16 21  1  0
  9  7  1  0
 12 10  1  0
  1 22  1  0
  1 23  1  0
  1 24  1  0
  2 25  1  0
  3 26  1  0
  6 27  1  0
  7 28  1  0
  8 29  1  0
  8 30  1  0
  9 31  1  0
  9 32  1  0
 10 33  1  0
 11 34  1  0
 11 35  1  0
 12 36  1  0
 12 37  1  0
 13 38  1  0
 16 39  1  0
 17 40  1  0
 17 41  1  0
 20 42  1  0
 21 43  1  0
 21 44  1  0
M  END
