
     RDKit          3D

 40 40  0  0  0  0  0  0  0  0999 V2000
    0.1201    1.1164    1.8125 C   0  0  0  0  0  0  0  0  0  0  0  0
    0.2856    0.7719    0.3322 C   0  0  0  0  0  0  0  0  0  0  0  0
   -0.8766    0.1265   -0.2157 N   0  0  0  0  0  0  0  0  0  0  0  0
   -2.0500    0.8213   -0.4270 C   0  0  0  0  0  0  0  0  0  0  0  0
   -2.2314    1.9712   -0.0452 O   0  0  0  0  0  0  0  0  0  0  0  0
   -3.0953    0.0071   -1.1866 C   0  0  0  0  0  0  0  0  0  0  0  0
   -4.3675    0.8052   -1.4996 C   0  0  0  0  0  0  0  0  0  0  0  0
   -5.3677    0.3662   -0.4415 C   0  0  0  0  0  0  0  0  0  0  0  0
   -5.0801   -1.1172   -0.3017 C   0  0  0  0  0  0  0  0  0  0  0  0
   -3.5592   -1.2055   -0.3610 C   0  0  0  0  0  0  0  0  0  0  0  0
    1.3802   -0.1424    0.1519 N   0  0  0  0  0  0  0  0  0  0  0  0
    2.6871    0.3040    0.1218 C   0  0  0  0  0  0  0  0  0  0  0  0
    3.0070    1.4849    0.0574 O   0  0  0  0  0  0  0  0  0  0  0  0
    3.7004   -0.8630    0.1633 C   0  0  0  0  0  0  0  0  0  0  0  0
    5.1194   -0.3494    0.3980 C   0  0  0  0  0  0  0  0  0  0  0  0
    5.6386    0.3371   -0.8349 C   0  0  0  0  0  0  0  0  0  0  0  0
    5.2963    0.1301   -1.9867 O   0  0  0  0  0  0  0  0  0  0  0  0
    6.6270    1.2080   -0.5546 O   0  0  0  0  0  0  0  0  0  0  0  0
    3.2771   -1.8025    1.2409 N   0  0  0  0  0  0  0  0  0  0  0  0
    1.0345    1.5638    2.2168 H   0  0  0  0  0  0  0  0  0  0  0  0
   -0.6966    1.8254    1.9767 H   0  0  0  0  0  0  0  0  0  0  0  0
   -0.0980    0.2188    2.4028 H   0  0  0  0  0  0  0  0  0  0  0  0
    0.4781    1.6876   -0.2392 H   0  0  0  0  0  0  0  0  0  0  0  0
   -0.6854   -0.6472   -0.8336 H   0  0  0  0  0  0  0  0  0  0  0  0
   -2.6333   -0.3147   -2.1284 H   0  0  0  0  0  0  0  0  0  0  0  0
   -4.2313    1.8904   -1.5063 H   0  0  0  0  0  0  0  0  0  0  0  0
   -4.7406    0.5165   -2.4905 H   0  0  0  0  0  0  0  0  0  0  0  0
   -6.4013    0.5631   -0.7397 H   0  0  0  0  0  0  0  0  0  0  0  0
   -5.1755    0.8847    0.5050 H   0  0  0  0  0  0  0  0  0  0  0  0
   -5.4839   -1.5357    0.6247 H   0  0  0  0  0  0  0  0  0  0  0  0
   -5.5195   -1.6677   -1.1421 H   0  0  0  0  0  0  0  0  0  0  0  0
   -3.2419   -2.1477   -0.8205 H   0  0  0  0  0  0  0  0  0  0  0  0
   -3.1503   -1.1854    0.6563 H   0  0  0  0  0  0  0  0  0  0  0  0
    1.2867   -1.0752    0.5429 H   0  0  0  0  0  0  0  0  0  0  0  0
    3.6249   -1.3942   -0.7930 H   0  0  0  0  0  0  0  0  0  0  0  0
    5.1411    0.3542    1.2387 H   0  0  0  0  0  0  0  0  0  0  0  0
    5.8036   -1.1767    0.6190 H   0  0  0  0  0  0  0  0  0  0  0  0
    6.8520    1.6051   -1.4223 H   0  0  0  0  0  0  0  0  0  0  0  0
    3.4051   -1.3395    2.1441 H   0  0  0  0  0  0  0  0  0  0  0  0
    3.9207   -2.5957    1.2515 H   0  0  0  0  0  0  0  0  0  0  0  0
  1  2  1  0
  2  3  1  0
  3  4  1  0
  4  5  2  0
  4  6  1  0
  6  7  1  0
  7  8  1  0
  8  9  1  0
  9 10  1  0
  2 11  1  0
 11 12  1  0
 12 13  2  0
 12 14  1  0
 14 15  1  0
 15 16  1  0
 16 17  2  0
 16 18  1  0
 14 19  1  0
 10  6  1  0
  1 20  1  0
  1 21  1  0
  1 22  1  0
  2 23  1  0
  3 24  1  0
  6 25  1  0
  7 26  1  0
  7 27  1  0
  8 28  1  0
  8 29  1  0
  9 30  1  0
  9 31  1  0
 10 32  1  0
 10 33  1  0
 11 34  1  0
 14 35  1  0
 15 36  1  0
 15 37  1  0
 18 38  1  0
 19 39  1  0
 19 40  1  0
M  END
