
     RDKit          3D

 52 52  0  0  0  0  0  0  0  0999 V2000
    1.8286   -0.9676    1.5797 C   0  0  0  0  0  0  0  0  0  0  0  0
    1.4080   -1.1367    0.1197 C   0  0  0  0  0  0  0  0  0  0  0  0
    0.1899   -0.4257   -0.1577 N   0  0  0  0  0  0  0  0  0  0  0  0
   -1.0378   -0.8929    0.2588 C   0  0  0  0  0  0  0  0  0  0  0  0
   -1.1566   -1.9299    0.8999 O   0  0  0  0  0  0  0  0  0  0  0  0
   -2.1960    0.0485   -0.0982 C   0  0  0  0  0  0  0  0  0  0  0  0
   -2.3500    1.2344    0.9001 C   0  0  0  0  0  0  0  0  0  0  0  0
   -2.2459    0.8040    2.3746 C   0  0  0  0  0  0  0  0  0  0  0  0
   -1.3404    2.3634    0.6477 C   0  0  0  0  0  0  0  0  0  0  0  0
   -3.7689    1.7297    0.5773 C   0  0  0  0  0  0  0  0  0  0  0  0
   -4.5854    0.4581    0.4018 C   0  0  0  0  0  0  0  0  0  0  0  0
   -3.6335   -0.5621   -0.2703 C   0  0  0  0  0  0  0  0  0  0  0  0
   -3.8780   -1.9480    0.3413 C   0  0  0  0  0  0  0  0  0  0  0  0
   -3.9610   -0.6586   -1.7756 C   0  0  0  0  0  0  0  0  0  0  0  0
    2.4187   -0.6151   -0.7620 N   0  0  0  0  0  0  0  0  0  0  0  0
    3.5585   -1.3325   -1.0431 C   0  0  0  0  0  0  0  0  0  0  0  0
    3.7382   -2.4912   -0.6744 O   0  0  0  0  0  0  0  0  0  0  0  0
    4.6157   -0.5603   -1.8708 C   0  0  0  0  0  0  0  0  0  0  0  0
    5.4722    0.3180   -0.9578 C   0  0  0  0  0  0  0  0  0  0  0  0
    4.7568    1.5893   -0.5956 C   0  0  0  0  0  0  0  0  0  0  0  0
    3.5735    1.8388   -0.7699 O   0  0  0  0  0  0  0  0  0  0  0  0
    5.5684    2.4783    0.0061 O   0  0  0  0  0  0  0  0  0  0  0  0
    5.4806   -1.5454   -2.5655 N   0  0  0  0  0  0  0  0  0  0  0  0
    2.7663   -1.4942    1.7854 H   0  0  0  0  0  0  0  0  0  0  0  0
    1.9817    0.0897    1.8246 H   0  0  0  0  0  0  0  0  0  0  0  0
    1.0681   -1.3574    2.2637 H   0  0  0  0  0  0  0  0  0  0  0  0
    1.2552   -2.2011   -0.0940 H   0  0  0  0  0  0  0  0  0  0  0  0
    0.2456    0.4028   -0.7289 H   0  0  0  0  0  0  0  0  0  0  0  0
   -1.9245    0.4849   -1.0728 H   0  0  0  0  0  0  0  0  0  0  0  0
   -1.2251    0.4990    2.6288 H   0  0  0  0  0  0  0  0  0  0  0  0
   -2.5115    1.6329    3.0405 H   0  0  0  0  0  0  0  0  0  0  0  0
   -2.9077   -0.0325    2.6141 H   0  0  0  0  0  0  0  0  0  0  0  0
   -1.5774    3.2414    1.2590 H   0  0  0  0  0  0  0  0  0  0  0  0
   -0.3201    2.0570    0.8975 H   0  0  0  0  0  0  0  0  0  0  0  0
   -1.3482    2.6806   -0.4006 H   0  0  0  0  0  0  0  0  0  0  0  0
   -3.7787    2.3003   -0.3602 H   0  0  0  0  0  0  0  0  0  0  0  0
   -4.1854    2.3730    1.3598 H   0  0  0  0  0  0  0  0  0  0  0  0
   -5.4910    0.6479   -0.1843 H   0  0  0  0  0  0  0  0  0  0  0  0
   -4.9150    0.1030    1.3862 H   0  0  0  0  0  0  0  0  0  0  0  0
   -4.9307   -2.2370    0.2378 H   0  0  0  0  0  0  0  0  0  0  0  0
   -3.2857   -2.7208   -0.1602 H   0  0  0  0  0  0  0  0  0  0  0  0
   -3.6460   -1.9684    1.4103 H   0  0  0  0  0  0  0  0  0  0  0  0
   -3.9040    0.3219   -2.2618 H   0  0  0  0  0  0  0  0  0  0  0  0
   -3.2593   -1.3284   -2.2859 H   0  0  0  0  0  0  0  0  0  0  0  0
   -4.9733   -1.0455   -1.9384 H   0  0  0  0  0  0  0  0  0  0  0  0
    2.4795    0.3965   -0.8452 H   0  0  0  0  0  0  0  0  0  0  0  0
    4.1041    0.0340   -2.6366 H   0  0  0  0  0  0  0  0  0  0  0  0
    6.3930    0.6068   -1.4801 H   0  0  0  0  0  0  0  0  0  0  0  0
    5.7377   -0.2068   -0.0328 H   0  0  0  0  0  0  0  0  0  0  0  0
    5.0098    3.2593    0.2016 H   0  0  0  0  0  0  0  0  0  0  0  0
    5.8032   -2.2187   -1.8609 H   0  0  0  0  0  0  0  0  0  0  0  0
    4.8839   -2.1164   -3.1697 H   0  0  0  0  0  0  0  0  0  0  0  0
  1  2  1  0
  2  3  1  0
  3  4  1  0
  4  5  2  0
  4  6  1  0
  6  7  1  0
  7  8  1  0
  7  9  1  0
  7 10  1  0
 10 11  1  0
 11 12  1  0
 12 13  1  0
 12 14  1  0
  2 15  1  0
 15 16  1  0
 16 17  2  0
 16 18  1  0
 18 19  1  0
 19 20  1  0
 20 21  2  0
 20 22  1  0
 18 23  1  0
 12  6  1  0
  1 24  1  0
  1 25  1  0
  1 26  1  0
  2 27  1  0
  3 28  1  0
  6 29  1  0
  8 30  1  0
  8 31  1  0
  8 32  1  0
  9 33  1  0
  9 34  1  0
  9 35  1  0
 10 36  1  0
 10 37  1  0
 11 38  1  0
 11 39  1  0
 13 40  1  0
 13 41  1  0
 13 42  1  0
 14 43  1  0
 14 44  1  0
 14 45  1  0
 15 46  1  0
 18 47  1  0
 19 48  1  0
 19 49  1  0
 22 50  1  0
 23 51  1  0
 23 52  1  0
M  END
