
     RDKit          3D

 37 37  0  0  0  0  0  0  0  0999 V2000
   -0.2369    0.0356    2.6032 C   0  0  0  0  0  0  0  0  0  0  0  0
   -0.0496    0.4219    1.1359 C   0  0  0  0  0  0  0  0  0  0  0  0
    1.2101   -0.0245    0.6042 N   0  0  0  0  0  0  0  0  0  0  0  0
    2.3951    0.5609    0.9993 C   0  0  0  0  0  0  0  0  0  0  0  0
    2.4820    1.3810    1.9050 O   0  0  0  0  0  0  0  0  0  0  0  0
    3.6063    0.1745    0.2218 C   0  0  0  0  0  0  0  0  0  0  0  0
    4.6789    1.0735    0.1674 C   0  0  0  0  0  0  0  0  0  0  0  0
    5.8312    0.7496   -0.5509 C   0  0  0  0  0  0  0  0  0  0  0  0
    5.9202   -0.4762   -1.2094 C   0  0  0  0  0  0  0  0  0  0  0  0
    4.8621   -1.3830   -1.1459 C   0  0  0  0  0  0  0  0  0  0  0  0
    3.7066   -1.0626   -0.4290 C   0  0  0  0  0  0  0  0  0  0  0  0
   -1.0692   -0.1879    0.3259 N   0  0  0  0  0  0  0  0  0  0  0  0
   -2.3359    0.3560    0.2398 C   0  0  0  0  0  0  0  0  0  0  0  0
   -2.6389    1.4614    0.6729 O   0  0  0  0  0  0  0  0  0  0  0  0
   -3.3252   -0.5878   -0.4820 C   0  0  0  0  0  0  0  0  0  0  0  0
   -4.7630   -0.0963   -0.3283 C   0  0  0  0  0  0  0  0  0  0  0  0
   -4.9904    1.1293   -1.1692 C   0  0  0  0  0  0  0  0  0  0  0  0
   -4.3970    1.4376   -2.1887 O   0  0  0  0  0  0  0  0  0  0  0  0
   -6.0167    1.8746   -0.7160 O   0  0  0  0  0  0  0  0  0  0  0  0
   -3.1553   -1.9560    0.0861 N   0  0  0  0  0  0  0  0  0  0  0  0
   -1.2222    0.3445    2.9686 H   0  0  0  0  0  0  0  0  0  0  0  0
   -0.1602   -1.0498    2.7366 H   0  0  0  0  0  0  0  0  0  0  0  0
    0.5157    0.5008    3.2465 H   0  0  0  0  0  0  0  0  0  0  0  0
   -0.1062    1.5119    1.0319 H   0  0  0  0  0  0  0  0  0  0  0  0
    1.1668   -0.3663   -0.3432 H   0  0  0  0  0  0  0  0  0  0  0  0
    4.6170    2.0298    0.6835 H   0  0  0  0  0  0  0  0  0  0  0  0
    6.6593    1.4528   -0.5925 H   0  0  0  0  0  0  0  0  0  0  0  0
    6.8200   -0.7286   -1.7655 H   0  0  0  0  0  0  0  0  0  0  0  0
    4.9423   -2.3443   -1.6477 H   0  0  0  0  0  0  0  0  0  0  0  0
    2.9085   -1.7965   -0.3662 H   0  0  0  0  0  0  0  0  0  0  0  0
   -1.0626   -1.1999    0.2418 H   0  0  0  0  0  0  0  0  0  0  0  0
   -3.0298   -0.6242   -1.5373 H   0  0  0  0  0  0  0  0  0  0  0  0
   -4.9801    0.1401    0.7201 H   0  0  0  0  0  0  0  0  0  0  0  0
   -5.4753   -0.8570   -0.6678 H   0  0  0  0  0  0  0  0  0  0  0  0
   -6.0389    2.6467   -1.3198 H   0  0  0  0  0  0  0  0  0  0  0  0
   -3.4864   -1.9487    1.0540 H   0  0  0  0  0  0  0  0  0  0  0  0
   -3.7823   -2.5929   -0.4083 H   0  0  0  0  0  0  0  0  0  0  0  0
  1  2  1  0
  2  3  1  0
  3  4  1  0
  4  5  2  0
  4  6  1  0
  6  7  2  0
  7  8  1  0
  8  9  2  0
  9 10  1  0
 10 11  2  0
  2 12  1  0
 12 13  1  0
 13 14  2  0
 13 15  1  0
 15 16  1  0
 16 17  1  0
 17 18  2  0
 17 19  1  0
 15 20  1  0
 11  6  1  0
  1 21  1  0
  1 22  1  0
  1 23  1  0
  2 24  1  0
  3 25  1  0
  7 26  1  0
  8 27  1  0
  9 28  1  0
 10 29  1  0
 11 30  1  0
 12 31  1  0
 15 32  1  0
 16 33  1  0
 16 34  1  0
 19 35  1  0
 20 36  1  0
 20 37  1  0
M  END
