
     RDKit          3D

 43 43  0  0  0  0  0  0  0  0999 V2000
   -0.4004   -0.3923   -2.1334 C   0  0  0  0  0  0  0  0  0  0  0  0
   -0.7579    0.1837   -0.7631 C   0  0  0  0  0  0  0  0  0  0  0  0
    0.3707    0.0778    0.1280 N   0  0  0  0  0  0  0  0  0  0  0  0
    1.4022    0.9935    0.0647 C   0  0  0  0  0  0  0  0  0  0  0  0
    1.3477    2.0085   -0.6210 O   0  0  0  0  0  0  0  0  0  0  0  0
    2.6046    0.6342    0.9385 C   0  0  0  0  0  0  0  0  0  0  0  0
    3.5926    1.8094    1.0124 C   0  0  0  0  0  0  0  0  0  0  0  0
    4.8316    1.4620    1.8334 C   0  0  0  0  0  0  0  0  0  0  0  0
    5.5201    0.2106    1.2994 C   0  0  0  0  0  0  0  0  0  0  0  0
    4.5538   -0.9670    1.2238 C   0  0  0  0  0  0  0  0  0  0  0  0
    3.3055   -0.6275    0.4113 C   0  0  0  0  0  0  0  0  0  0  0  0
   -1.8422   -0.5266   -0.1368 N   0  0  0  0  0  0  0  0  0  0  0  0
   -3.1348   -0.3945   -0.6187 C   0  0  0  0  0  0  0  0  0  0  0  0
   -3.4161    0.1592   -1.6764 O   0  0  0  0  0  0  0  0  0  0  0  0
   -4.1838   -1.1022    0.2706 C   0  0  0  0  0  0  0  0  0  0  0  0
   -5.5984   -0.6325   -0.0646 C   0  0  0  0  0  0  0  0  0  0  0  0
   -5.7766    0.7931    0.3740 C   0  0  0  0  0  0  0  0  0  0  0  0
   -5.0098    1.4524    1.0566 O   0  0  0  0  0  0  0  0  0  0  0  0
   -6.9424    1.3174   -0.0524 O   0  0  0  0  0  0  0  0  0  0  0  0
   -4.0639   -2.5650    0.0524 N   0  0  0  0  0  0  0  0  0  0  0  0
   -1.2331   -0.3121   -2.8375 H   0  0  0  0  0  0  0  0  0  0  0  0
   -0.1327   -1.4528   -2.0565 H   0  0  0  0  0  0  0  0  0  0  0  0
    0.4563    0.1316   -2.5714 H   0  0  0  0  0  0  0  0  0  0  0  0
   -1.0443    1.2365   -0.8682 H   0  0  0  0  0  0  0  0  0  0  0  0
    0.5680   -0.8383    0.5005 H   0  0  0  0  0  0  0  0  0  0  0  0
    2.2250    0.4394    1.9519 H   0  0  0  0  0  0  0  0  0  0  0  0
    3.9044    2.1009   -0.0002 H   0  0  0  0  0  0  0  0  0  0  0  0
    3.0995    2.6866    1.4506 H   0  0  0  0  0  0  0  0  0  0  0  0
    4.5451    1.3056    2.8816 H   0  0  0  0  0  0  0  0  0  0  0  0
    5.5335    2.3048    1.8151 H   0  0  0  0  0  0  0  0  0  0  0  0
    5.9268    0.4139    0.3011 H   0  0  0  0  0  0  0  0  0  0  0  0
    6.3690   -0.0469    1.9430 H   0  0  0  0  0  0  0  0  0  0  0  0
    5.0598   -1.8301    0.7756 H   0  0  0  0  0  0  0  0  0  0  0  0
    4.2580   -1.2644    2.2374 H   0  0  0  0  0  0  0  0  0  0  0  0
    3.5823   -0.4839   -0.6418 H   0  0  0  0  0  0  0  0  0  0  0  0
    2.6269   -1.4883    0.4358 H   0  0  0  0  0  0  0  0  0  0  0  0
   -1.7703   -0.6078    0.8673 H   0  0  0  0  0  0  0  0  0  0  0  0
   -3.9525   -0.8943    1.3222 H   0  0  0  0  0  0  0  0  0  0  0  0
   -6.3419   -1.2457    0.4602 H   0  0  0  0  0  0  0  0  0  0  0  0
   -5.7895   -0.6933   -1.1433 H   0  0  0  0  0  0  0  0  0  0  0  0
   -6.9213    2.2441    0.2671 H   0  0  0  0  0  0  0  0  0  0  0  0
   -4.2861   -2.7661   -0.9259 H   0  0  0  0  0  0  0  0  0  0  0  0
   -3.0852   -2.8332    0.1612 H   0  0  0  0  0  0  0  0  0  0  0  0
  1  2  1  0
  2  3  1  0
  3  4  1  0
  4  5  2  0
  4  6  1  0
  6  7  1  0
  7  8  1  0
  8  9  1  0
  9 10  1  0
 10 11  1  0
  2 12  1  0
 12 13  1  0
 13 14  2  0
 13 15  1  0
 15 16  1  0
 16 17  1  0
 17 18  2  0
 17 19  1  0
 15 20  1  0
 11  6  1  0
  1 21  1  0
  1 22  1  0
  1 23  1  0
  2 24  1  0
  3 25  1  0
  6 26  1  0
  7 27  1  0
  7 28  1  0
  8 29  1  0
  8 30  1  0
  9 31  1  0
  9 32  1  0
 10 33  1  0
 10 34  1  0
 11 35  1  0
 11 36  1  0
 12 37  1  0
 15 38  1  0
 16 39  1  0
 16 40  1  0
 19 41  1  0
 20 42  1  0
 20 43  1  0
M  END
