
     RDKit          3D

 49 49  0  0  0  0  0  0  0  0999 V2000
    1.1014    0.4517   -2.4345 C   0  0  0  0  0  0  0  0  0  0  0  0
    1.1071   -0.6072   -1.3325 C   0  0  0  0  0  0  0  0  0  0  0  0
    0.1201   -0.2918   -0.3329 N   0  0  0  0  0  0  0  0  0  0  0  0
   -1.2063   -0.6207   -0.5125 C   0  0  0  0  0  0  0  0  0  0  0  0
   -1.6025   -1.2933   -1.4579 O   0  0  0  0  0  0  0  0  0  0  0  0
   -2.1321   -0.0596    0.5740 C   0  0  0  0  0  0  0  0  0  0  0  0
   -2.2475    1.4799    0.4683 C   0  0  0  0  0  0  0  0  0  0  0  0
   -2.8166    1.9462   -0.8802 C   0  0  0  0  0  0  0  0  0  0  0  0
   -3.0693    2.0545    1.6404 C   0  0  0  0  0  0  0  0  0  0  0  0
   -4.0038    1.0451    2.3084 C   0  0  0  0  0  0  0  0  0  0  0  0
   -4.5992    0.0691    1.3043 C   0  0  0  0  0  0  0  0  0  0  0  0
   -3.5195   -0.7553    0.5745 C   0  0  0  0  0  0  0  0  0  0  0  0
   -3.4105   -2.1526    1.2016 C   0  0  0  0  0  0  0  0  0  0  0  0
    2.3728   -0.6756   -0.6559 N   0  0  0  0  0  0  0  0  0  0  0  0
    3.4914   -1.2129   -1.2446 C   0  0  0  0  0  0  0  0  0  0  0  0
    3.5352   -1.5535   -2.4249 O   0  0  0  0  0  0  0  0  0  0  0  0
    4.7090   -1.3629   -0.2954 C   0  0  0  0  0  0  0  0  0  0  0  0
    5.2671    0.0036    0.1048 C   0  0  0  0  0  0  0  0  0  0  0  0
    4.5003    0.5933    1.2566 C   0  0  0  0  0  0  0  0  0  0  0  0
    3.4250    0.2161    1.6964 O   0  0  0  0  0  0  0  0  0  0  0  0
    5.1209    1.6665    1.7823 O   0  0  0  0  0  0  0  0  0  0  0  0
    5.7625   -2.1382   -0.9983 N   0  0  0  0  0  0  0  0  0  0  0  0
    1.3353    1.4429   -2.0286 H   0  0  0  0  0  0  0  0  0  0  0  0
    0.1192    0.5149   -2.9150 H   0  0  0  0  0  0  0  0  0  0  0  0
    1.8389    0.2310   -3.2120 H   0  0  0  0  0  0  0  0  0  0  0  0
    0.8895   -1.5902   -1.7665 H   0  0  0  0  0  0  0  0  0  0  0  0
    0.3580    0.4192    0.3420 H   0  0  0  0  0  0  0  0  0  0  0  0
   -1.6398   -0.2852    1.5324 H   0  0  0  0  0  0  0  0  0  0  0  0
   -1.2443    1.9211    0.5353 H   0  0  0  0  0  0  0  0  0  0  0  0
   -2.8443    3.0407   -0.9250 H   0  0  0  0  0  0  0  0  0  0  0  0
   -2.1916    1.6070   -1.7123 H   0  0  0  0  0  0  0  0  0  0  0  0
   -3.8327    1.5820   -1.0524 H   0  0  0  0  0  0  0  0  0  0  0  0
   -2.3824    2.4351    2.4072 H   0  0  0  0  0  0  0  0  0  0  0  0
   -3.6509    2.9231    1.3074 H   0  0  0  0  0  0  0  0  0  0  0  0
   -3.4534    0.4868    3.0760 H   0  0  0  0  0  0  0  0  0  0  0  0
   -4.8039    1.5816    2.8315 H   0  0  0  0  0  0  0  0  0  0  0  0
   -5.3194   -0.5866    1.8080 H   0  0  0  0  0  0  0  0  0  0  0  0
   -5.1807    0.6358    0.5664 H   0  0  0  0  0  0  0  0  0  0  0  0
   -3.8661   -0.9010   -0.4570 H   0  0  0  0  0  0  0  0  0  0  0  0
   -3.1162   -2.0932    2.2550 H   0  0  0  0  0  0  0  0  0  0  0  0
   -4.3712   -2.6762    1.1490 H   0  0  0  0  0  0  0  0  0  0  0  0
   -2.6723   -2.7677    0.6773 H   0  0  0  0  0  0  0  0  0  0  0  0
    2.3514   -0.6285    0.3584 H   0  0  0  0  0  0  0  0  0  0  0  0
    4.3960   -1.9457    0.5786 H   0  0  0  0  0  0  0  0  0  0  0  0
    6.3062   -0.1041    0.4407 H   0  0  0  0  0  0  0  0  0  0  0  0
    5.2370    0.7095   -0.7328 H   0  0  0  0  0  0  0  0  0  0  0  0
    4.5511    1.9663    2.5208 H   0  0  0  0  0  0  0  0  0  0  0  0
    5.3536   -3.0366   -1.2712 H   0  0  0  0  0  0  0  0  0  0  0  0
    5.9274   -1.6846   -1.9030 H   0  0  0  0  0  0  0  0  0  0  0  0
  1  2  1  0
  2  3  1  0
  3  4  1  0
  4  5  2  0
  4  6  1  0
  6  7  1  0
  7  8  1  0
  7  9  1  0
  9 10  1  0
 10 11  1  0
 11 12  1  0
 12 13  1  0
  2 14  1  0
 14 15  1  0
 15 16  2  0
 15 17  1  0
 17 18  1  0
 18 19  1  0
 19 20  2  0
 19 21  1  0
 17 22  1  0
 12  6  1  0
  1 23  1  0
  1 24  1  0
  1 25  1  0
  2 26  1  0
  3 27  1  0
  6 28  1  0
  7 29  1  0
  8 30  1  0
  8 31  1  0
  8 32  1  0
  9 33  1  0
  9 34  1  0
 10 35  1  0
 10 36  1  0
 11 37  1  0
 11 38  1  0
 12 39  1  0
 13 40  1  0
 13 41  1  0
 13 42  1  0
 14 43  1  0
 17 44  1  0
 18 45  1  0
 18 46  1  0
 21 47  1  0
 22 48  1  0
 22 49  1  0
M  END
