
     RDKit          3D

 44 45  0  0  0  0  0  0  0  0999 V2000
   -0.3531   -2.6337   -1.1911 C   0  0  0  0  0  0  0  0  0  0  0  0
   -0.1739   -1.1261   -1.3626 C   0  0  0  0  0  0  0  0  0  0  0  0
   -0.4552   -0.4396   -0.1292 N   0  0  0  0  0  0  0  0  0  0  0  0
   -1.7466   -0.1233    0.2341 C   0  0  0  0  0  0  0  0  0  0  0  0
   -2.7180   -0.3418   -0.4803 O   0  0  0  0  0  0  0  0  0  0  0  0
   -1.8483    0.4845    1.6292 C   0  0  0  0  0  0  0  0  0  0  0  0
   -1.0471    1.7968    1.7658 C   0  0  0  0  0  0  0  0  0  0  0  0
   -2.1074    2.8049    2.2431 C   0  0  0  0  0  0  0  0  0  0  0  0
   -3.3329    2.3624    1.4482 C   0  0  0  0  0  0  0  0  0  0  0  0
   -3.2852    0.9312    1.9892 C   0  0  0  0  0  0  0  0  0  0  0  0
   -3.3513    1.1790    3.5068 C   0  0  0  0  0  0  0  0  0  0  0  0
   -2.5201    2.4586    3.6835 C   0  0  0  0  0  0  0  0  0  0  0  0
    1.1712   -0.7949   -1.7419 N   0  0  0  0  0  0  0  0  0  0  0  0
    1.6489   -0.9962   -3.0121 C   0  0  0  0  0  0  0  0  0  0  0  0
    0.9694   -1.4677   -3.9213 O   0  0  0  0  0  0  0  0  0  0  0  0
    3.1254   -0.5731   -3.2192 C   0  0  0  0  0  0  0  0  0  0  0  0
    4.0764   -1.6168   -2.6323 C   0  0  0  0  0  0  0  0  0  0  0  0
    4.2585   -1.4189   -1.1535 C   0  0  0  0  0  0  0  0  0  0  0  0
    3.5189   -0.8039   -0.4000 O   0  0  0  0  0  0  0  0  0  0  0  0
    5.3531   -2.0463   -0.6854 O   0  0  0  0  0  0  0  0  0  0  0  0
    3.3749   -0.4361   -4.6757 N   0  0  0  0  0  0  0  0  0  0  0  0
   -0.1565   -3.1681   -2.1254 H   0  0  0  0  0  0  0  0  0  0  0  0
   -1.3733   -2.8750   -0.8741 H   0  0  0  0  0  0  0  0  0  0  0  0
    0.3321   -3.0296   -0.4327 H   0  0  0  0  0  0  0  0  0  0  0  0
   -0.8561   -0.7688   -2.1429 H   0  0  0  0  0  0  0  0  0  0  0  0
    0.2607   -0.4331    0.5817 H   0  0  0  0  0  0  0  0  0  0  0  0
   -1.4901   -0.2736    2.3366 H   0  0  0  0  0  0  0  0  0  0  0  0
   -0.2264    1.6963    2.4826 H   0  0  0  0  0  0  0  0  0  0  0  0
   -0.6238    2.1215    0.8086 H   0  0  0  0  0  0  0  0  0  0  0  0
   -1.8092    3.8459    2.1112 H   0  0  0  0  0  0  0  0  0  0  0  0
   -3.1900    2.4254    0.3646 H   0  0  0  0  0  0  0  0  0  0  0  0
   -4.2460    2.8986    1.7282 H   0  0  0  0  0  0  0  0  0  0  0  0
   -4.0781    0.2738    1.6244 H   0  0  0  0  0  0  0  0  0  0  0  0
   -4.3840    1.3560    3.8269 H   0  0  0  0  0  0  0  0  0  0  0  0
   -2.9526    0.3440    4.0909 H   0  0  0  0  0  0  0  0  0  0  0  0
   -3.1398    3.2531    4.1127 H   0  0  0  0  0  0  0  0  0  0  0  0
   -1.6590    2.3031    4.3401 H   0  0  0  0  0  0  0  0  0  0  0  0
    1.8213   -0.5128   -1.0135 H   0  0  0  0  0  0  0  0  0  0  0  0
    3.2764    0.4111   -2.7621 H   0  0  0  0  0  0  0  0  0  0  0  0
    5.0664   -1.5148   -3.0948 H   0  0  0  0  0  0  0  0  0  0  0  0
    3.7132   -2.6358   -2.8043 H   0  0  0  0  0  0  0  0  0  0  0  0
    5.3811   -1.8575    0.2752 H   0  0  0  0  0  0  0  0  0  0  0  0
    2.7071    0.2489   -5.0400 H   0  0  0  0  0  0  0  0  0  0  0  0
    3.0687   -1.3078   -5.1216 H   0  0  0  0  0  0  0  0  0  0  0  0
  1  2  1  0
  2  3  1  0
  3  4  1  0
  4  5  2  0
  4  6  1  0
  6  7  1  0
  7  8  1  0
  8  9  1  0
  9 10  1  0
 10 11  1  0
 11 12  1  0
  2 13  1  0
 13 14  1  0
 14 15  2  0
 14 16  1  0
 16 17  1  0
 17 18  1  0
 18 19  2  0
 18 20  1  0
 16 21  1  0
 10  6  1  0
 12  8  1  0
  1 22  1  0
  1 23  1  0
  1 24  1  0
  2 25  1  0
  3 26  1  0
  6 27  1  0
  7 28  1  0
  7 29  1  0
  8 30  1  0
  9 31  1  0
  9 32  1  0
 10 33  1  0
 11 34  1  0
 11 35  1  0
 12 36  1  0
 12 37  1  0
 13 38  1  0
 16 39  1  0
 17 40  1  0
 17 41  1  0
 20 42  1  0
 21 43  1  0
 21 44  1  0
M  END
