
     RDKit          3D

 20 20  0  0  0  0  0  0  0  0999 V2000
   -2.6833   -0.3196   -0.5130 O   0  0  0  0  0  0  0  0  0  0  0  0
   -1.2554   -0.3252   -0.5780 C   0  0  0  0  0  0  0  0  0  0  0  0
   -0.7486    0.9731   -1.2028 C   0  0  0  0  0  0  0  0  0  0  0  0
    0.6787    1.0398   -1.2056 O   0  0  0  0  0  0  0  0  0  0  0  0
    1.2241    0.9851    0.1054 C   0  0  0  0  0  0  0  0  0  0  0  0
    0.8325   -0.3154    0.8320 C   0  0  0  0  0  0  0  0  0  0  0  0
   -0.6836   -0.4828    0.8353 C   0  0  0  0  0  0  0  0  0  0  0  0
   -1.0408   -1.7820    1.3337 O   0  0  0  0  0  0  0  0  0  0  0  0
    1.4060   -1.4622    0.1649 O   0  0  0  0  0  0  0  0  0  0  0  0
    2.6385    0.9940   -0.0310 O   0  0  0  0  0  0  0  0  0  0  0  0
   -2.9193   -1.0878    0.0453 H   0  0  0  0  0  0  0  0  0  0  0  0
   -0.9604   -1.1802   -1.1980 H   0  0  0  0  0  0  0  0  0  0  0  0
   -1.1567    1.8500   -0.6845 H   0  0  0  0  0  0  0  0  0  0  0  0
   -1.0936    1.0441   -2.2402 H   0  0  0  0  0  0  0  0  0  0  0  0
    0.9154    1.8676    0.6776 H   0  0  0  0  0  0  0  0  0  0  0  0
    1.2360   -0.3324    1.8500 H   0  0  0  0  0  0  0  0  0  0  0  0
   -1.1473    0.2508    1.5053 H   0  0  0  0  0  0  0  0  0  0  0  0
   -0.3444   -2.3831    0.9916 H   0  0  0  0  0  0  0  0  0  0  0  0
    2.2745   -1.1448   -0.1632 H   0  0  0  0  0  0  0  0  0  0  0  0
    2.8276    1.8109   -0.5248 H   0  0  0  0  0  0  0  0  0  0  0  0
  1  2  1  0
  2  3  1  0
  3  4  1  0
  4  5  1  0
  5  6  1  0
  6  7  1  0
  7  8  1  0
  6  9  1  0
  5 10  1  0
  7  2  1  0
  1 11  1  0
  2 12  1  0
  3 13  1  0
  3 14  1  0
  5 15  1  0
  6 16  1  0
  7 17  1  0
  8 18  1  0
  9 19  1  0
 10 20  1  0
M  END
