
     RDKit          3D

 51 53  0  0  0  0  0  0  0  0999 V2000
    1.3214   -3.0916    0.5085 C   0  0  0  0  0  0  0  0  0  0  0  0
    1.5349   -1.7341   -0.1598 C   0  0  0  0  0  0  0  0  0  0  0  0
    0.3726   -0.9033    0.0178 N   0  0  0  0  0  0  0  0  0  0  0  0
   -0.7158   -1.0048   -0.8192 C   0  0  0  0  0  0  0  0  0  0  0  0
   -0.7115   -1.7259   -1.8129 O   0  0  0  0  0  0  0  0  0  0  0  0
   -1.9293   -0.1500   -0.4172 C   0  0  0  0  0  0  0  0  0  0  0  0
   -1.5435    1.3467   -0.3274 C   0  0  0  0  0  0  0  0  0  0  0  0
   -2.7661    2.1967    0.0607 C   0  0  0  0  0  0  0  0  0  0  0  0
   -3.3011    1.7206    1.4222 C   0  0  0  0  0  0  0  0  0  0  0  0
   -3.7168    0.2417    1.3398 C   0  0  0  0  0  0  0  0  0  0  0  0
   -2.4929   -0.6065    0.9505 C   0  0  0  0  0  0  0  0  0  0  0  0
   -4.8084    0.0817    0.2699 C   0  0  0  0  0  0  0  0  0  0  0  0
   -4.2787    0.5489   -1.0950 C   0  0  0  0  0  0  0  0  0  0  0  0
   -3.0533   -0.2974   -1.4760 C   0  0  0  0  0  0  0  0  0  0  0  0
   -3.8628    2.0255   -1.0023 C   0  0  0  0  0  0  0  0  0  0  0  0
    2.6413   -1.0130    0.4085 N   0  0  0  0  0  0  0  0  0  0  0  0
    3.9421   -1.3930    0.1680 C   0  0  0  0  0  0  0  0  0  0  0  0
    4.2522   -2.4387   -0.3988 O   0  0  0  0  0  0  0  0  0  0  0  0
    5.0067   -0.3899    0.6768 C   0  0  0  0  0  0  0  0  0  0  0  0
    5.2575    0.6961   -0.3702 C   0  0  0  0  0  0  0  0  0  0  0  0
    4.1670    1.7300   -0.3564 C   0  0  0  0  0  0  0  0  0  0  0  0
    3.1176    1.6798    0.2666 O   0  0  0  0  0  0  0  0  0  0  0  0
    4.4454    2.7741   -1.1587 O   0  0  0  0  0  0  0  0  0  0  0  0
    6.2659   -1.1308    0.9360 N   0  0  0  0  0  0  0  0  0  0  0  0
    1.1519   -2.9774    1.5855 H   0  0  0  0  0  0  0  0  0  0  0  0
    0.4482   -3.6030    0.0891 H   0  0  0  0  0  0  0  0  0  0  0  0
    2.1864   -3.7486    0.3784 H   0  0  0  0  0  0  0  0  0  0  0  0
    1.7245   -1.8762   -1.2302 H   0  0  0  0  0  0  0  0  0  0  0  0
    0.2572   -0.4752    0.9232 H   0  0  0  0  0  0  0  0  0  0  0  0
   -1.1378    1.6897   -1.2882 H   0  0  0  0  0  0  0  0  0  0  0  0
   -0.7490    1.5035    0.4130 H   0  0  0  0  0  0  0  0  0  0  0  0
   -2.4765    3.2515    0.1258 H   0  0  0  0  0  0  0  0  0  0  0  0
   -4.1597    2.3341    1.7218 H   0  0  0  0  0  0  0  0  0  0  0  0
   -2.5320    1.8513    2.1935 H   0  0  0  0  0  0  0  0  0  0  0  0
   -4.1007   -0.0889    2.3113 H   0  0  0  0  0  0  0  0  0  0  0  0
   -1.7344   -0.5212    1.7381 H   0  0  0  0  0  0  0  0  0  0  0  0
   -2.7703   -1.6680    0.9082 H   0  0  0  0  0  0  0  0  0  0  0  0
   -5.6942    0.6660    0.5480 H   0  0  0  0  0  0  0  0  0  0  0  0
   -5.1245   -0.9670    0.2108 H   0  0  0  0  0  0  0  0  0  0  0  0
   -5.0598    0.4319   -1.8544 H   0  0  0  0  0  0  0  0  0  0  0  0
   -2.6862    0.0103   -2.4642 H   0  0  0  0  0  0  0  0  0  0  0  0
   -3.3499   -1.3504   -1.5719 H   0  0  0  0  0  0  0  0  0  0  0  0
   -3.4986    2.3746   -1.9763 H   0  0  0  0  0  0  0  0  0  0  0  0
   -4.7320    2.6441   -0.7471 H   0  0  0  0  0  0  0  0  0  0  0  0
    2.4851   -0.0178    0.5468 H   0  0  0  0  0  0  0  0  0  0  0  0
    4.6695    0.0383    1.6279 H   0  0  0  0  0  0  0  0  0  0  0  0
    5.3180    0.2692   -1.3778 H   0  0  0  0  0  0  0  0  0  0  0  0
    6.1963    1.2178   -0.1468 H   0  0  0  0  0  0  0  0  0  0  0  0
    3.6755    3.3762   -1.0876 H   0  0  0  0  0  0  0  0  0  0  0  0
    6.4801   -1.6718    0.0906 H   0  0  0  0  0  0  0  0  0  0  0  0
    6.0683   -1.8558    1.6297 H   0  0  0  0  0  0  0  0  0  0  0  0
  1  2  1  0
  2  3  1  0
  3  4  1  0
  4  5  2  0
  4  6  1  0
  6  7  1  0
  7  8  1  0
  8  9  1  0
  9 10  1  0
 10 11  1  0
 10 12  1  0
 12 13  1  0
 13 14  1  0
 13 15  1  0
  2 16  1  0
 16 17  1  0
 17 18  2  0
 17 19  1  0
 19 20  1  0
 20 21  1  0
 21 22  2  0
 21 23  1  0
 19 24  1  0
 14  6  1  0
 11  6  1  0
 15  8  1  0
  1 25  1  0
  1 26  1  0
  1 27  1  0
  2 28  1  0
  3 29  1  0
  7 30  1  0
  7 31  1  0
  8 32  1  0
  9 33  1  0
  9 34  1  0
 10 35  1  0
 11 36  1  0
 11 37  1  0
 12 38  1  0
 12 39  1  0
 13 40  1  0
 14 41  1  0
 14 42  1  0
 15 43  1  0
 15 44  1  0
 16 45  1  0
 19 46  1  0
 20 47  1  0
 20 48  1  0
 23 49  1  0
 24 50  1  0
 24 51  1  0
M  END
