
     RDKit          3D

 54 55  0  0  0  0  0  0  0  0999 V2000
   -4.3754   -0.6702   -0.9855 C   0  0  0  0  0  0  0  0  0  0  0  0
   -3.8135   -0.7836    0.3226 O   0  0  0  0  0  0  0  0  0  0  0  0
   -2.4694   -1.0188    0.3354 C   0  0  0  0  0  0  0  0  0  0  0  0
   -1.7671   -1.1212   -0.6695 O   0  0  0  0  0  0  0  0  0  0  0  0
   -1.9655   -1.1673    1.7859 C   0  0  0  0  0  0  0  0  0  0  0  0
   -0.5617   -1.5831    1.7476 N   0  0  0  0  0  0  0  0  0  0  0  0
   -0.2612   -2.8857    1.3856 C   0  0  0  0  0  0  0  0  0  0  0  0
   -1.0482   -3.8138    1.5454 O   0  0  0  0  0  0  0  0  0  0  0  0
    1.1165   -3.0363    0.7051 C   0  0  0  0  0  0  0  0  0  0  0  0
    1.0774   -2.1277   -0.4608 N   0  0  0  0  0  0  0  0  0  0  0  0
    1.6753   -0.8859   -0.4134 C   0  0  0  0  0  0  0  0  0  0  0  0
    2.4180   -0.5633    0.5037 O   0  0  0  0  0  0  0  0  0  0  0  0
    1.2862   -0.1036   -1.4751 N   0  0  0  0  0  0  0  0  0  0  0  0
    1.6959    1.2129   -1.7622 C   0  0  0  0  0  0  0  0  0  0  0  0
    1.0124    1.8887   -2.7813 C   0  0  0  0  0  0  0  0  0  0  0  0
    1.3556    3.2010   -3.1229 C   0  0  0  0  0  0  0  0  0  0  0  0
    2.3942    3.8500   -2.4511 C   0  0  0  0  0  0  0  0  0  0  0  0
    3.0872    3.1774   -1.4420 C   0  0  0  0  0  0  0  0  0  0  0  0
    2.7397    1.8647   -1.1014 C   0  0  0  0  0  0  0  0  0  0  0  0
    2.7445    5.1971   -2.7940 C   0  0  0  0  0  0  0  0  0  0  0  0
    3.0214    6.2898   -3.0709 N   0  0  0  0  0  0  0  0  0  0  0  0
    1.3592   -4.4679    0.2444 C   0  0  0  0  0  0  0  0  0  0  0  0
    1.4851   -5.4473    1.3764 C   0  0  0  0  0  0  0  0  0  0  0  0
    1.3191   -6.6536    1.2837 O   0  0  0  0  0  0  0  0  0  0  0  0
    1.8930   -4.9125    2.5397 O   0  0  0  0  0  0  0  0  0  0  0  0
   -2.1677    0.1232    2.5961 C   0  0  0  0  0  0  0  0  0  0  0  0
   -1.4685    1.3420    2.0334 C   0  0  0  0  0  0  0  0  0  0  0  0
   -2.1325    2.1972    1.1425 C   0  0  0  0  0  0  0  0  0  0  0  0
   -1.4767    3.3038    0.6008 C   0  0  0  0  0  0  0  0  0  0  0  0
   -0.1538    3.5688    0.9464 C   0  0  0  0  0  0  0  0  0  0  0  0
    0.5134    2.7305    1.8363 C   0  0  0  0  0  0  0  0  0  0  0  0
   -0.1404    1.6247    2.3802 C   0  0  0  0  0  0  0  0  0  0  0  0
   -5.4492   -0.4924   -0.8789 H   0  0  0  0  0  0  0  0  0  0  0  0
   -3.9347    0.1780   -1.5184 H   0  0  0  0  0  0  0  0  0  0  0  0
   -4.2316   -1.5991   -1.5463 H   0  0  0  0  0  0  0  0  0  0  0  0
   -2.5418   -1.9785    2.2468 H   0  0  0  0  0  0  0  0  0  0  0  0
    0.0960   -0.8825    1.4174 H   0  0  0  0  0  0  0  0  0  0  0  0
    1.8875   -2.7087    1.4106 H   0  0  0  0  0  0  0  0  0  0  0  0
    0.2114   -2.1610   -0.9894 H   0  0  0  0  0  0  0  0  0  0  0  0
    0.5232   -0.4652   -2.0297 H   0  0  0  0  0  0  0  0  0  0  0  0
    0.1972    1.4071   -3.3160 H   0  0  0  0  0  0  0  0  0  0  0  0
    0.8062    3.7086   -3.9138 H   0  0  0  0  0  0  0  0  0  0  0  0
    3.9036    3.6636   -0.9107 H   0  0  0  0  0  0  0  0  0  0  0  0
    3.3093    1.3748   -0.3168 H   0  0  0  0  0  0  0  0  0  0  0  0
    0.5362   -4.8039   -0.3982 H   0  0  0  0  0  0  0  0  0  0  0  0
    2.2847   -4.5205   -0.3404 H   0  0  0  0  0  0  0  0  0  0  0  0
    1.9278   -5.6806    3.1498 H   0  0  0  0  0  0  0  0  0  0  0  0
   -3.2398    0.3434    2.6822 H   0  0  0  0  0  0  0  0  0  0  0  0
   -1.8180   -0.0355    3.6250 H   0  0  0  0  0  0  0  0  0  0  0  0
   -3.1678    2.0129    0.8649 H   0  0  0  0  0  0  0  0  0  0  0  0
   -1.9985    3.9619   -0.0888 H   0  0  0  0  0  0  0  0  0  0  0  0
    0.3579    4.4293    0.5240 H   0  0  0  0  0  0  0  0  0  0  0  0
    1.5470    2.9341    2.1048 H   0  0  0  0  0  0  0  0  0  0  0  0
    0.4008    0.9841    3.0743 H   0  0  0  0  0  0  0  0  0  0  0  0
  1  2  1  0
  2  3  1  0
  3  4  2  0
  3  5  1  0
  5  6  1  0
  6  7  1  0
  7  8  2  0
  7  9  1  0
  9 10  1  0
 10 11  1  0
 11 12  2  0
 11 13  1  0
 13 14  1  0
 14 15  2  0
 15 16  1  0
 16 17  2  0
 17 18  1  0
 18 19  2  0
 17 20  1  0
 20 21  3  0
  9 22  1  0
 22 23  1  0
 23 24  2  0
 23 25  1  0
  5 26  1  0
 26 27  1  0
 27 28  2  0
 28 29  1  0
 29 30  2  0
 30 31  1  0
 31 32  2  0
 19 14  1  0
 32 27  1  0
  1 33  1  0
  1 34  1  0
  1 35  1  0
  5 36  1  0
  6 37  1  0
  9 38  1  0
 10 39  1  0
 13 40  1  0
 15 41  1  0
 16 42  1  0
 18 43  1  0
 19 44  1  0
 22 45  1  0
 22 46  1  0
 25 47  1  0
 26 48  1  0
 26 49  1  0
 28 50  1  0
 29 51  1  0
 30 52  1  0
 31 53  1  0
 32 54  1  0
M  END
