
     RDKit          3D

 51 52  0  0  0  0  0  0  0  0999 V2000
    8.1168   -2.1852    0.7182 N   0  0  0  0  0  0  0  0  0  0  0  0
    7.0064   -1.9081    0.5252 C   0  0  0  0  0  0  0  0  0  0  0  0
    5.6365   -1.5580    0.2881 C   0  0  0  0  0  0  0  0  0  0  0  0
    5.2121   -1.2149   -1.0000 C   0  0  0  0  0  0  0  0  0  0  0  0
    3.8754   -0.8748   -1.2276 C   0  0  0  0  0  0  0  0  0  0  0  0
    2.9589   -0.8541   -0.1736 C   0  0  0  0  0  0  0  0  0  0  0  0
    3.3823   -1.2237    1.1066 C   0  0  0  0  0  0  0  0  0  0  0  0
    4.7170   -1.5656    1.3422 C   0  0  0  0  0  0  0  0  0  0  0  0
    1.6207   -0.5600   -0.4234 N   0  0  0  0  0  0  0  0  0  0  0  0
    1.0733    0.5645   -0.0976 C   0  0  0  0  0  0  0  0  0  0  0  0
   -0.2718    0.7700   -0.2744 N   0  0  0  0  0  0  0  0  0  0  0  0
   -1.1771   -0.2838   -0.7429 C   0  0  0  0  0  0  0  0  0  0  0  0
   -2.3256    0.3666   -1.5342 C   0  0  0  0  0  0  0  0  0  0  0  0
   -3.1695    1.4489   -0.8557 C   0  0  0  0  0  0  0  0  0  0  0  0
   -3.9747    1.0840    0.3877 C   0  0  0  0  0  0  0  0  0  0  0  0
   -5.1764    0.1679    0.1703 C   0  0  0  0  0  0  0  0  0  0  0  0
   -4.9222   -1.2838   -0.2327 C   0  0  0  0  0  0  0  0  0  0  0  0
   -3.9794   -2.0700    0.6796 C   0  0  0  0  0  0  0  0  0  0  0  0
   -2.5700   -2.3019    0.1198 C   0  0  0  0  0  0  0  0  0  0  0  0
   -1.5547   -1.2002    0.4337 C   0  0  0  0  0  0  0  0  0  0  0  0
    1.5830    1.7129    0.4427 N   0  0  0  0  0  0  0  0  0  0  0  0
    2.9782    2.1311    0.3263 C   0  0  0  0  0  0  0  0  0  0  0  0
    3.0923    3.6252    0.5825 C   0  0  0  0  0  0  0  0  0  0  0  0
    2.1637    4.4140    0.6865 O   0  0  0  0  0  0  0  0  0  0  0  0
    4.3684    4.0525    0.6652 O   0  0  0  0  0  0  0  0  0  0  0  0
    5.9105   -1.2197   -1.8344 H   0  0  0  0  0  0  0  0  0  0  0  0
    3.5374   -0.6274   -2.2308 H   0  0  0  0  0  0  0  0  0  0  0  0
    2.6614   -1.2444    1.9201 H   0  0  0  0  0  0  0  0  0  0  0  0
    5.0265   -1.8442    2.3474 H   0  0  0  0  0  0  0  0  0  0  0  0
   -0.6818    1.3252    0.4669 H   0  0  0  0  0  0  0  0  0  0  0  0
   -0.6460   -0.9059   -1.4768 H   0  0  0  0  0  0  0  0  0  0  0  0
   -1.8685    0.8517   -2.4100 H   0  0  0  0  0  0  0  0  0  0  0  0
   -2.9651   -0.4046   -1.9654 H   0  0  0  0  0  0  0  0  0  0  0  0
   -2.5122    2.2884   -0.5954 H   0  0  0  0  0  0  0  0  0  0  0  0
   -3.8631    1.8505   -1.6064 H   0  0  0  0  0  0  0  0  0  0  0  0
   -3.3368    0.7114    1.1880 H   0  0  0  0  0  0  0  0  0  0  0  0
   -4.3769    2.0283    0.7818 H   0  0  0  0  0  0  0  0  0  0  0  0
   -5.7516    0.1566    1.1061 H   0  0  0  0  0  0  0  0  0  0  0  0
   -5.8395    0.6219   -0.5772 H   0  0  0  0  0  0  0  0  0  0  0  0
   -4.6245   -1.3593   -1.2808 H   0  0  0  0  0  0  0  0  0  0  0  0
   -5.9016   -1.7819   -0.1940 H   0  0  0  0  0  0  0  0  0  0  0  0
   -4.4255   -3.0667    0.8037 H   0  0  0  0  0  0  0  0  0  0  0  0
   -3.9415   -1.6397    1.6868 H   0  0  0  0  0  0  0  0  0  0  0  0
   -2.1974   -3.2154    0.6042 H   0  0  0  0  0  0  0  0  0  0  0  0
   -2.5989   -2.5338   -0.9507 H   0  0  0  0  0  0  0  0  0  0  0  0
   -1.8435   -0.6319    1.3217 H   0  0  0  0  0  0  0  0  0  0  0  0
   -0.6295   -1.7067    0.7455 H   0  0  0  0  0  0  0  0  0  0  0  0
    0.9714    2.5096    0.2746 H   0  0  0  0  0  0  0  0  0  0  0  0
    3.3531    1.9506   -0.6854 H   0  0  0  0  0  0  0  0  0  0  0  0
    3.5869    1.6164    1.0737 H   0  0  0  0  0  0  0  0  0  0  0  0
    4.2930    5.0177    0.8221 H   0  0  0  0  0  0  0  0  0  0  0  0
  1  2  3  0
  2  3  1  0
  3  4  2  0
  4  5  1  0
  5  6  2  0
  6  7  1  0
  7  8  2  0
  6  9  1  0
  9 10  2  3
 10 11  1  0
 11 12  1  0
 12 13  1  0
 13 14  1  0
 14 15  1  0
 15 16  1  0
 16 17  1  0
 17 18  1  0
 18 19  1  0
 19 20  1  0
 10 21  1  0
 21 22  1  0
 22 23  1  0
 23 24  2  0
 23 25  1  0
  8  3  1  0
 20 12  1  0
  4 26  1  0
  5 27  1  0
  7 28  1  0
  8 29  1  0
 11 30  1  0
 12 31  1  0
 13 32  1  0
 13 33  1  0
 14 34  1  0
 14 35  1  0
 15 36  1  0
 15 37  1  0
 16 38  1  0
 16 39  1  0
 17 40  1  0
 17 41  1  0
 18 42  1  0
 18 43  1  0
 19 44  1  0
 19 45  1  0
 20 46  1  0
 20 47  1  0
 21 48  1  0
 22 49  1  0
 22 50  1  0
 25 51  1  0
M  END
