
     RDKit          3D

 49 50  0  0  0  0  0  0  0  0999 V2000
   -2.0082   -4.7010    1.9872 C   0  0  0  0  0  0  0  0  0  0  0  0
   -1.7737   -4.2079    0.6677 O   0  0  0  0  0  0  0  0  0  0  0  0
   -2.0942   -2.8952    0.5012 C   0  0  0  0  0  0  0  0  0  0  0  0
   -2.5811   -2.1718    1.3606 O   0  0  0  0  0  0  0  0  0  0  0  0
   -1.7988   -2.4565   -0.9201 C   0  0  0  0  0  0  0  0  0  0  0  0
   -2.9998   -2.8611   -1.7875 C   0  0  0  0  0  0  0  0  0  0  0  0
   -2.7860   -2.6231   -3.2628 C   0  0  0  0  0  0  0  0  0  0  0  0
   -1.8564   -3.3893   -3.9795 C   0  0  0  0  0  0  0  0  0  0  0  0
   -1.6513   -3.1612   -5.3410 C   0  0  0  0  0  0  0  0  0  0  0  0
   -2.3743   -2.1687   -5.9993 C   0  0  0  0  0  0  0  0  0  0  0  0
   -3.3053   -1.4052   -5.2979 C   0  0  0  0  0  0  0  0  0  0  0  0
   -3.5121   -1.6314   -3.9362 C   0  0  0  0  0  0  0  0  0  0  0  0
   -1.5431   -0.9417   -0.9484 C   0  0  0  0  0  0  0  0  0  0  0  0
   -0.3096   -0.5550   -0.1517 C   0  0  0  0  0  0  0  0  0  0  0  0
    0.5340   -1.3846    0.2007 O   0  0  0  0  0  0  0  0  0  0  0  0
   -0.1239    0.9319    0.1176 C   0  0  0  0  0  0  0  0  0  0  0  0
    0.9226    1.1142    1.1043 N   0  0  0  0  0  0  0  0  0  0  0  0
    1.3840    2.3799    1.3851 C   0  0  0  0  0  0  0  0  0  0  0  0
    0.8882    3.3769    0.8779 O   0  0  0  0  0  0  0  0  0  0  0  0
    2.4162    2.3347    2.2938 N   0  0  0  0  0  0  0  0  0  0  0  0
    3.1816    3.4106    2.7823 C   0  0  0  0  0  0  0  0  0  0  0  0
    4.1019    3.1326    3.8014 C   0  0  0  0  0  0  0  0  0  0  0  0
    4.9045    4.1467    4.3357 C   0  0  0  0  0  0  0  0  0  0  0  0
    4.7968    5.4528    3.8523 C   0  0  0  0  0  0  0  0  0  0  0  0
    3.8848    5.7351    2.8330 C   0  0  0  0  0  0  0  0  0  0  0  0
    3.0830    4.7177    2.3004 C   0  0  0  0  0  0  0  0  0  0  0  0
    5.6179    6.4941    4.3970 C   0  0  0  0  0  0  0  0  0  0  0  0
    6.2864    7.3325    4.8413 N   0  0  0  0  0  0  0  0  0  0  0  0
   -3.0755   -4.6586    2.2261 H   0  0  0  0  0  0  0  0  0  0  0  0
   -1.4233   -4.1352    2.7192 H   0  0  0  0  0  0  0  0  0  0  0  0
   -1.6866   -5.7456    2.0206 H   0  0  0  0  0  0  0  0  0  0  0  0
   -0.8892   -2.9745   -1.2511 H   0  0  0  0  0  0  0  0  0  0  0  0
   -3.2275   -3.9269   -1.6487 H   0  0  0  0  0  0  0  0  0  0  0  0
   -3.8998   -2.3301   -1.4486 H   0  0  0  0  0  0  0  0  0  0  0  0
   -1.2871   -4.1724   -3.4831 H   0  0  0  0  0  0  0  0  0  0  0  0
   -0.9286   -3.7604   -5.8891 H   0  0  0  0  0  0  0  0  0  0  0  0
   -2.2154   -1.9932   -7.0601 H   0  0  0  0  0  0  0  0  0  0  0  0
   -3.8730   -0.6345   -5.8131 H   0  0  0  0  0  0  0  0  0  0  0  0
   -4.2456   -1.0270   -3.4070 H   0  0  0  0  0  0  0  0  0  0  0  0
   -2.4022   -0.3981   -0.5384 H   0  0  0  0  0  0  0  0  0  0  0  0
   -1.3755   -0.5935   -1.9732 H   0  0  0  0  0  0  0  0  0  0  0  0
   -1.0474    1.3638    0.5139 H   0  0  0  0  0  0  0  0  0  0  0  0
    0.1581    1.4337   -0.8129 H   0  0  0  0  0  0  0  0  0  0  0  0
    1.5841    0.3497    1.1737 H   0  0  0  0  0  0  0  0  0  0  0  0
    2.5552    1.4384    2.7363 H   0  0  0  0  0  0  0  0  0  0  0  0
    4.2067    2.1246    4.1958 H   0  0  0  0  0  0  0  0  0  0  0  0
    5.6108    3.9076    5.1286 H   0  0  0  0  0  0  0  0  0  0  0  0
    3.7864    6.7460    2.4410 H   0  0  0  0  0  0  0  0  0  0  0  0
    2.3913    4.9802    1.5051 H   0  0  0  0  0  0  0  0  0  0  0  0
  1  2  1  0
  2  3  1  0
  3  4  2  0
  3  5  1  0
  5  6  1  0
  6  7  1  0
  7  8  2  0
  8  9  1  0
  9 10  2  0
 10 11  1  0
 11 12  2  0
  5 13  1  0
 13 14  1  0
 14 15  2  0
 14 16  1  0
 16 17  1  0
 17 18  1  0
 18 19  2  0
 18 20  1  0
 20 21  1  0
 21 22  2  0
 22 23  1  0
 23 24  2  0
 24 25  1  0
 25 26  2  0
 24 27  1  0
 27 28  3  0
 12  7  1  0
 26 21  1  0
  1 29  1  0
  1 30  1  0
  1 31  1  0
  5 32  1  0
  6 33  1  0
  6 34  1  0
  8 35  1  0
  9 36  1  0
 10 37  1  0
 11 38  1  0
 12 39  1  0
 13 40  1  0
 13 41  1  0
 16 42  1  0
 16 43  1  0
 17 44  1  0
 20 45  1  0
 22 46  1  0
 23 47  1  0
 25 48  1  0
 26 49  1  0
M  END
