
     RDKit          3D

 52 53  0  0  0  0  0  0  0  0999 V2000
    3.2229    3.4727   -2.5247 C   0  0  0  0  0  0  0  0  0  0  0  0
    3.1052    2.4123   -1.5747 O   0  0  0  0  0  0  0  0  0  0  0  0
    2.0372    1.5863   -1.7838 C   0  0  0  0  0  0  0  0  0  0  0  0
    1.2386    1.7211   -2.7042 O   0  0  0  0  0  0  0  0  0  0  0  0
    1.9648    0.4731   -0.7468 C   0  0  0  0  0  0  0  0  0  0  0  0
    0.6109    0.5179   -0.0551 C   0  0  0  0  0  0  0  0  0  0  0  0
    0.3509    1.2318    0.9087 O   0  0  0  0  0  0  0  0  0  0  0  0
   -0.2639   -0.3396   -0.6515 O   0  0  0  0  0  0  0  0  0  0  0  0
   -1.5525   -0.4647   -0.0302 C   0  0  0  0  0  0  0  0  0  0  0  0
   -2.1336   -1.8796   -0.3398 C   0  0  0  0  0  0  0  0  0  0  0  0
   -1.1302   -3.0160   -0.2807 C   0  0  0  0  0  0  0  0  0  0  0  0
   -3.3719   -2.1121    0.5581 C   0  0  0  0  0  0  0  0  0  0  0  0
   -4.4439   -1.2298   -0.0927 C   0  0  0  0  0  0  0  0  0  0  0  0
   -3.6705   -0.5178   -1.2165 C   0  0  0  0  0  0  0  0  0  0  0  0
   -2.6196    0.4964   -0.6556 C   0  0  0  0  0  0  0  0  0  0  0  0
   -3.1955    1.4431    0.4096 C   0  0  0  0  0  0  0  0  0  0  0  0
   -2.0845    1.3720   -1.8065 C   0  0  0  0  0  0  0  0  0  0  0  0
   -2.7847   -1.6700   -1.7107 C   0  0  0  0  0  0  0  0  0  0  0  0
    3.0142    0.5616    0.2755 N   0  0  0  0  0  0  0  0  0  0  0  0
    3.3494   -0.5289    1.0513 C   0  0  0  0  0  0  0  0  0  0  0  0
    2.9350   -1.6568    0.8093 O   0  0  0  0  0  0  0  0  0  0  0  0
    4.2927   -0.1777    2.2064 C   0  0  0  0  0  0  0  0  0  0  0  0
    4.1940   -1.1814    3.3482 C   0  0  0  0  0  0  0  0  0  0  0  0
    4.7785   -2.2493    3.4346 O   0  0  0  0  0  0  0  0  0  0  0  0
    3.3653   -0.7845    4.3440 O   0  0  0  0  0  0  0  0  0  0  0  0
    3.9962    1.2218    2.6839 N   0  0  0  0  0  0  0  0  0  0  0  0
    3.3667    3.0699   -3.5322 H   0  0  0  0  0  0  0  0  0  0  0  0
    4.1017    4.0675   -2.2609 H   0  0  0  0  0  0  0  0  0  0  0  0
    2.3417    4.1206   -2.4867 H   0  0  0  0  0  0  0  0  0  0  0  0
    2.0920   -0.4845   -1.2641 H   0  0  0  0  0  0  0  0  0  0  0  0
   -1.4601   -0.3467    1.0572 H   0  0  0  0  0  0  0  0  0  0  0  0
   -1.6103   -3.9766   -0.4966 H   0  0  0  0  0  0  0  0  0  0  0  0
   -0.3262   -2.8840   -1.0122 H   0  0  0  0  0  0  0  0  0  0  0  0
   -0.6769   -3.0830    0.7139 H   0  0  0  0  0  0  0  0  0  0  0  0
   -3.1884   -1.8301    1.6002 H   0  0  0  0  0  0  0  0  0  0  0  0
   -3.6943   -3.1598    0.5458 H   0  0  0  0  0  0  0  0  0  0  0  0
   -5.2312   -1.8627   -0.5208 H   0  0  0  0  0  0  0  0  0  0  0  0
   -4.9283   -0.5563    0.6178 H   0  0  0  0  0  0  0  0  0  0  0  0
   -4.3294   -0.0946   -1.9791 H   0  0  0  0  0  0  0  0  0  0  0  0
   -3.4774    0.9190    1.3279 H   0  0  0  0  0  0  0  0  0  0  0  0
   -2.4566    2.1993    0.6986 H   0  0  0  0  0  0  0  0  0  0  0  0
   -4.0804    1.9666    0.0315 H   0  0  0  0  0  0  0  0  0  0  0  0
   -2.8988    1.9442   -2.2659 H   0  0  0  0  0  0  0  0  0  0  0  0
   -1.3445    2.0945   -1.4459 H   0  0  0  0  0  0  0  0  0  0  0  0
   -1.6149    0.7835   -2.6003 H   0  0  0  0  0  0  0  0  0  0  0  0
   -3.3610   -2.5373   -2.0530 H   0  0  0  0  0  0  0  0  0  0  0  0
   -2.0758   -1.3882   -2.4944 H   0  0  0  0  0  0  0  0  0  0  0  0
    3.1849    1.4663    0.7160 H   0  0  0  0  0  0  0  0  0  0  0  0
    5.3210   -0.1866    1.8296 H   0  0  0  0  0  0  0  0  0  0  0  0
    3.3761   -1.5422    4.9682 H   0  0  0  0  0  0  0  0  0  0  0  0
    4.6666    1.4363    3.4250 H   0  0  0  0  0  0  0  0  0  0  0  0
    3.0992    1.1633    3.1831 H   0  0  0  0  0  0  0  0  0  0  0  0
  1  2  1  0
  2  3  1  0
  3  4  2  0
  3  5  1  0
  5  6  1  0
  6  7  2  0
  6  8  1  0
  8  9  1  0
  9 10  1  0
 10 11  1  0
 10 12  1  0
 12 13  1  0
 13 14  1  0
 14 15  1  0
 15 16  1  0
 15 17  1  0
 14 18  1  0
  5 19  1  0
 19 20  1  0
 20 21  2  0
 20 22  1  0
 22 23  1  0
 23 24  2  0
 23 25  1  0
 22 26  1  0
 15  9  1  0
 18 10  1  0
  1 27  1  0
  1 28  1  0
  1 29  1  0
  5 30  1  0
  9 31  1  0
 11 32  1  0
 11 33  1  0
 11 34  1  0
 12 35  1  0
 12 36  1  0
 13 37  1  0
 13 38  1  0
 14 39  1  0
 16 40  1  0
 16 41  1  0
 16 42  1  0
 17 43  1  0
 17 44  1  0
 17 45  1  0
 18 46  1  0
 18 47  1  0
 19 48  1  0
 22 49  1  0
 25 50  1  0
 26 51  1  0
 26 52  1  0
M  END
