
     RDKit          3D

 25 25  0  0  0  0  0  0  0  0999 V2000
    5.9371    1.2173    2.2878 N   0  0  0  0  0  0  0  0  0  0  0  0
    4.8444    0.9641    1.9896 C   0  0  0  0  0  0  0  0  0  0  0  0
    3.4953    0.6431    1.6265 C   0  0  0  0  0  0  0  0  0  0  0  0
    2.8063   -0.3668    2.3024 C   0  0  0  0  0  0  0  0  0  0  0  0
    1.4898   -0.6784    1.9451 C   0  0  0  0  0  0  0  0  0  0  0  0
    0.8454    0.0159    0.9130 C   0  0  0  0  0  0  0  0  0  0  0  0
    1.5423    1.0203    0.2376 C   0  0  0  0  0  0  0  0  0  0  0  0
    2.8600    1.3347    0.5928 C   0  0  0  0  0  0  0  0  0  0  0  0
   -0.4762   -0.3616    0.6082 N   0  0  0  0  0  0  0  0  0  0  0  0
   -1.3468    0.2542   -0.2635 C   0  0  0  0  0  0  0  0  0  0  0  0
   -1.1600    1.2930   -0.8808 O   0  0  0  0  0  0  0  0  0  0  0  0
   -2.5251   -0.4630   -0.3548 N   0  0  0  0  0  0  0  0  0  0  0  0
   -3.5447   -0.0147   -1.2975 C   0  0  0  0  0  0  0  0  0  0  0  0
   -3.3439   -0.5954   -2.6908 C   0  0  0  0  0  0  0  0  0  0  0  0
   -3.9667   -0.2856   -3.6942 O   0  0  0  0  0  0  0  0  0  0  0  0
   -2.4435   -1.6041   -2.7386 O   0  0  0  0  0  0  0  0  0  0  0  0
    3.2860   -0.9173    3.1096 H   0  0  0  0  0  0  0  0  0  0  0  0
    0.9773   -1.4689    2.4881 H   0  0  0  0  0  0  0  0  0  0  0  0
    1.0891    1.5784   -0.5769 H   0  0  0  0  0  0  0  0  0  0  0  0
    3.3798    2.1236    0.0518 H   0  0  0  0  0  0  0  0  0  0  0  0
   -0.8894   -1.0815    1.1820 H   0  0  0  0  0  0  0  0  0  0  0  0
   -2.3786   -1.4634   -0.3672 H   0  0  0  0  0  0  0  0  0  0  0  0
   -3.5498    1.0770   -1.3604 H   0  0  0  0  0  0  0  0  0  0  0  0
   -4.5052   -0.3748   -0.9184 H   0  0  0  0  0  0  0  0  0  0  0  0
   -2.4228   -1.8462   -3.6893 H   0  0  0  0  0  0  0  0  0  0  0  0
  1  2  3  0
  2  3  1  0
  3  4  2  0
  4  5  1  0
  5  6  2  0
  6  7  1  0
  7  8  2  0
  6  9  1  0
  9 10  1  0
 10 11  2  0
 10 12  1  0
 12 13  1  0
 13 14  1  0
 14 15  2  0
 14 16  1  0
  8  3  1  0
  4 17  1  0
  5 18  1  0
  7 19  1  0
  8 20  1  0
  9 21  1  0
 12 22  1  0
 13 23  1  0
 13 24  1  0
 16 25  1  0
M  END
