
     RDKit          3D

 26 26  0  0  0  0  0  0  0  0999 V2000
    1.1294   -1.7353    0.2727 O   0  0  0  0  0  0  0  0  0  0  0  0
    1.3507   -0.5896    0.6376 C   0  0  0  0  0  0  0  0  0  0  0  0
    0.4431    0.4428    0.7251 N   0  0  0  0  0  0  0  0  0  0  0  0
   -0.9091    0.4340    0.3331 C   0  0  0  0  0  0  0  0  0  0  0  0
   -1.6785    1.5596    0.6607 C   0  0  0  0  0  0  0  0  0  0  0  0
   -3.0287    1.6338    0.3015 C   0  0  0  0  0  0  0  0  0  0  0  0
   -3.6149    0.5723   -0.3968 C   0  0  0  0  0  0  0  0  0  0  0  0
   -2.8577   -0.5538   -0.7354 C   0  0  0  0  0  0  0  0  0  0  0  0
   -1.5072   -0.6161   -0.3701 C   0  0  0  0  0  0  0  0  0  0  0  0
   -5.0306    0.6435   -0.7784 N   0  0  0  0  0  4  0  0  0  0  0  0
   -5.6642    1.6575   -0.4512 O   0  0  0  0  0  1  0  0  0  0  0  0
   -5.5090   -0.3118   -1.4060 O   0  0  0  0  0  0  0  0  0  0  0  0
    2.6018   -0.1677    1.0465 N   0  0  0  0  0  0  0  0  0  0  0  0
    3.7207   -1.0992    0.9463 C   0  0  0  0  0  0  0  0  0  0  0  0
    4.3961   -1.0520   -0.4177 C   0  0  0  0  0  0  0  0  0  0  0  0
    5.2654   -1.8118   -0.8149 O   0  0  0  0  0  0  0  0  0  0  0  0
    4.0208    0.0024   -1.1780 O   0  0  0  0  0  0  0  0  0  0  0  0
    0.7615    1.2420    1.2528 H   0  0  0  0  0  0  0  0  0  0  0  0
   -1.2394    2.3938    1.2032 H   0  0  0  0  0  0  0  0  0  0  0  0
   -3.6019    2.5182    0.5719 H   0  0  0  0  0  0  0  0  0  0  0  0
   -3.2939   -1.3889   -1.2802 H   0  0  0  0  0  0  0  0  0  0  0  0
   -0.9457   -1.5019   -0.6551 H   0  0  0  0  0  0  0  0  0  0  0  0
    2.8272    0.7659    0.7305 H   0  0  0  0  0  0  0  0  0  0  0  0
    3.3835   -2.1202    1.1453 H   0  0  0  0  0  0  0  0  0  0  0  0
    4.4552   -0.7919    1.6960 H   0  0  0  0  0  0  0  0  0  0  0  0
    4.5255   -0.1256   -2.0097 H   0  0  0  0  0  0  0  0  0  0  0  0
  1  2  2  0
  2  3  1  0
  3  4  1  0
  4  5  2  0
  5  6  1  0
  6  7  2  0
  7  8  1  0
  8  9  2  0
  7 10  1  0
 10 11  1  0
 10 12  2  0
  2 13  1  0
 13 14  1  0
 14 15  1  0
 15 16  2  0
 15 17  1  0
  9  4  1  0
  3 18  1  0
  5 19  1  0
  6 20  1  0
  8 21  1  0
  9 22  1  0
 13 23  1  0
 14 24  1  0
 14 25  1  0
 17 26  1  0
M  CHG  2  10   1  11  -1
M  END
