
     RDKit          3D

 39 40  0  0  0  0  0  0  0  0999 V2000
    0.5991   -0.2101   -1.6461 O   0  0  0  0  0  0  0  0  0  0  0  0
    0.5927   -0.1384   -0.4258 C   0  0  0  0  0  0  0  0  0  0  0  0
    1.6857   -0.1945    0.4116 N   0  0  0  0  0  0  0  0  0  0  0  0
    3.0446   -0.2538    0.0473 C   0  0  0  0  0  0  0  0  0  0  0  0
    3.5050   -0.1019   -1.2643 C   0  0  0  0  0  0  0  0  0  0  0  0
    4.8739   -0.1648   -1.5529 C   0  0  0  0  0  0  0  0  0  0  0  0
    5.7903   -0.3777   -0.5181 C   0  0  0  0  0  0  0  0  0  0  0  0
    5.3452   -0.5249    0.8002 C   0  0  0  0  0  0  0  0  0  0  0  0
    3.9751   -0.4601    1.0759 C   0  0  0  0  0  0  0  0  0  0  0  0
    7.2265   -0.4440   -0.8151 N   0  0  0  0  0  4  0  0  0  0  0  0
    8.0012   -0.6393    0.1327 O   0  0  0  0  0  1  0  0  0  0  0  0
    7.5805   -0.3001   -1.9937 O   0  0  0  0  0  0  0  0  0  0  0  0
   -0.5702   -0.0069    0.3085 N   0  0  0  0  0  0  0  0  0  0  0  0
   -1.8589    0.1471   -0.3747 C   0  0  0  0  0  0  0  0  0  0  0  0
   -2.8880    0.6328    0.6409 C   0  0  0  0  0  0  0  0  0  0  0  0
   -3.1655   -0.0970    1.8094 C   0  0  0  0  0  0  0  0  0  0  0  0
   -4.1070    0.3655    2.7302 C   0  0  0  0  0  0  0  0  0  0  0  0
   -4.7829    1.5608    2.4960 C   0  0  0  0  0  0  0  0  0  0  0  0
   -4.5197    2.2940    1.3410 C   0  0  0  0  0  0  0  0  0  0  0  0
   -3.5781    1.8340    0.4188 C   0  0  0  0  0  0  0  0  0  0  0  0
   -2.3101   -1.1519   -1.0582 C   0  0  0  0  0  0  0  0  0  0  0  0
   -3.4875   -0.9051   -1.9570 C   0  0  0  0  0  0  0  0  0  0  0  0
   -3.7945    0.1374   -2.5097 O   0  0  0  0  0  0  0  0  0  0  0  0
   -4.2144   -2.0228   -2.1602 O   0  0  0  0  0  0  0  0  0  0  0  0
    1.4678   -0.3433    1.3858 H   0  0  0  0  0  0  0  0  0  0  0  0
    2.8209    0.0730   -2.0904 H   0  0  0  0  0  0  0  0  0  0  0  0
    5.1995   -0.0447   -2.5845 H   0  0  0  0  0  0  0  0  0  0  0  0
    6.0439   -0.6892    1.6181 H   0  0  0  0  0  0  0  0  0  0  0  0
    3.6474   -0.5764    2.1065 H   0  0  0  0  0  0  0  0  0  0  0  0
   -0.4619    0.5822    1.1220 H   0  0  0  0  0  0  0  0  0  0  0  0
   -1.7101    0.9270   -1.1336 H   0  0  0  0  0  0  0  0  0  0  0  0
   -2.6492   -1.0339    2.0092 H   0  0  0  0  0  0  0  0  0  0  0  0
   -4.3163   -0.2087    3.6293 H   0  0  0  0  0  0  0  0  0  0  0  0
   -5.5188    1.9195    3.2110 H   0  0  0  0  0  0  0  0  0  0  0  0
   -5.0519    3.2233    1.1536 H   0  0  0  0  0  0  0  0  0  0  0  0
   -3.3960    2.4156   -0.4838 H   0  0  0  0  0  0  0  0  0  0  0  0
   -1.5173   -1.5755   -1.6833 H   0  0  0  0  0  0  0  0  0  0  0  0
   -2.5773   -1.9106   -0.3132 H   0  0  0  0  0  0  0  0  0  0  0  0
   -4.9237   -1.7368   -2.7735 H   0  0  0  0  0  0  0  0  0  0  0  0
  1  2  2  0
  2  3  1  0
  3  4  1  0
  4  5  2  0
  5  6  1  0
  6  7  2  0
  7  8  1  0
  8  9  2  0
  7 10  1  0
 10 11  1  0
 10 12  2  0
  2 13  1  0
 13 14  1  0
 14 15  1  0
 15 16  2  0
 16 17  1  0
 17 18  2  0
 18 19  1  0
 19 20  2  0
 14 21  1  0
 21 22  1  0
 22 23  2  0
 22 24  1  0
  9  4  1  0
 20 15  1  0
  3 25  1  0
  5 26  1  0
  6 27  1  0
  8 28  1  0
  9 29  1  0
 13 30  1  0
 14 31  1  0
 16 32  1  0
 17 33  1  0
 18 34  1  0
 19 35  1  0
 20 36  1  0
 21 37  1  0
 21 38  1  0
 24 39  1  0
M  CHG  2  10   1  11  -1
M  END
