
     RDKit          3D

 16 16  0  0  0  0  0  0  0  0999 V2000
    2.5591   -0.5754    0.2318 N   0  0  0  0  0  0  0  0  0  0  0  0
    1.2668   -0.0829    0.0256 C   0  0  0  0  0  0  0  0  0  0  0  0
    1.0404    1.2973   -0.0174 C   0  0  0  0  0  0  0  0  0  0  0  0
   -0.2561    1.8140   -0.1001 C   0  0  0  0  0  0  0  0  0  0  0  0
   -1.3506    0.9520   -0.0989 C   0  0  0  0  0  0  0  0  0  0  0  0
   -1.1322   -0.4269    0.0036 C   0  0  0  0  0  0  0  0  0  0  0  0
    0.1690   -0.9438    0.0858 C   0  0  0  0  0  0  0  0  0  0  0  0
   -2.2779   -1.3425    0.0365 N   0  0  0  0  0  4  0  0  0  0  0  0
   -3.4136   -0.8456    0.0394 O   0  0  0  0  0  1  0  0  0  0  0  0
   -2.0451   -2.5599    0.0542 O   0  0  0  0  0  0  0  0  0  0  0  0
    2.6913   -1.5440   -0.0446 H   0  0  0  0  0  0  0  0  0  0  0  0
    3.2982    0.0274   -0.1172 H   0  0  0  0  0  0  0  0  0  0  0  0
    1.8803    1.9880    0.0137 H   0  0  0  0  0  0  0  0  0  0  0  0
   -0.4085    2.8896   -0.1509 H   0  0  0  0  0  0  0  0  0  0  0  0
   -2.3549    1.3656   -0.1595 H   0  0  0  0  0  0  0  0  0  0  0  0
    0.3336   -2.0129    0.1979 H   0  0  0  0  0  0  0  0  0  0  0  0
  1  2  1  0
  2  3  2  0
  3  4  1  0
  4  5  2  0
  5  6  1  0
  6  7  2  0
  6  8  1  0
  8  9  1  0
  8 10  2  0
  7  2  1  0
  1 11  1  0
  1 12  1  0
  3 13  1  0
  4 14  1  0
  5 15  1  0
  7 16  1  0
M  CHG  2   8   1   9  -1
M  END
