
     RDKit          3D

 20 20  0  0  0  0  0  0  0  0999 V2000
   -3.1251   -0.2384   -0.7421 C   0  0  0  0  0  0  0  0  0  0  0  0
   -2.0540    0.6967   -0.7253 O   0  0  0  0  0  0  0  0  0  0  0  0
   -0.8058    0.2105   -0.4167 C   0  0  0  0  0  0  0  0  0  0  0  0
   -0.5459   -1.0730    0.0748 C   0  0  0  0  0  0  0  0  0  0  0  0
    0.7663   -1.4651    0.3553 C   0  0  0  0  0  0  0  0  0  0  0  0
    1.8191   -0.5695    0.1327 C   0  0  0  0  0  0  0  0  0  0  0  0
    1.5701    0.7188   -0.3540 C   0  0  0  0  0  0  0  0  0  0  0  0
    0.2548    1.1279   -0.5916 C   0  0  0  0  0  0  0  0  0  0  0  0
    0.0207    2.3755   -1.2012 N   0  0  0  0  0  0  0  0  0  0  0  0
    3.1989   -0.9883    0.4040 N   0  0  0  0  0  4  0  0  0  0  0  0
    4.0959   -0.1429    0.2764 O   0  0  0  0  0  1  0  0  0  0  0  0
    3.3860   -2.1636    0.7508 O   0  0  0  0  0  0  0  0  0  0  0  0
   -2.9226   -1.0641   -1.4325 H   0  0  0  0  0  0  0  0  0  0  0  0
   -4.0181    0.2831   -1.0999 H   0  0  0  0  0  0  0  0  0  0  0  0
   -3.3378   -0.6078    0.2662 H   0  0  0  0  0  0  0  0  0  0  0  0
   -1.3410   -1.7907    0.2493 H   0  0  0  0  0  0  0  0  0  0  0  0
    0.9489   -2.4688    0.7345 H   0  0  0  0  0  0  0  0  0  0  0  0
    2.3881    1.4054   -0.5587 H   0  0  0  0  0  0  0  0  0  0  0  0
    0.6608    3.1100   -0.9199 H   0  0  0  0  0  0  0  0  0  0  0  0
   -0.9594    2.6443   -1.1177 H   0  0  0  0  0  0  0  0  0  0  0  0
  1  2  1  0
  2  3  1  0
  3  4  2  0
  4  5  1  0
  5  6  2  0
  6  7  1  0
  7  8  2  0
  8  9  1  0
  6 10  1  0
 10 11  1  0
 10 12  2  0
  8  3  1  0
  1 13  1  0
  1 14  1  0
  1 15  1  0
  4 16  1  0
  5 17  1  0
  7 18  1  0
  9 19  1  0
  9 20  1  0
M  CHG  2  10   1  11  -1
M  END
