
     RDKit          3D

 45 46  0  0  0  0  0  0  0  0999 V2000
   -0.9498    1.6354   -2.8413 O   0  0  0  0  0  0  0  0  0  0  0  0
   -1.7530    0.4593   -2.9095 C   0  0  0  0  0  0  0  0  0  0  0  0
   -2.3953    0.1422   -1.5486 C   0  0  0  0  0  0  0  0  0  0  0  0
   -3.4798    1.0592   -1.3372 O   0  0  0  0  0  0  0  0  0  0  0  0
   -4.2152    0.7853   -0.1497 C   0  0  0  0  0  0  0  0  0  0  0  0
   -4.8441   -0.4914   -0.2229 O   0  0  0  0  0  0  0  0  0  0  0  0
   -3.3123    0.8586    1.0902 C   0  0  0  0  0  0  0  0  0  0  0  0
   -2.1078   -0.0710    0.9265 C   0  0  0  0  0  0  0  0  0  0  0  0
   -1.3754    0.2112   -0.3963 C   0  0  0  0  0  0  0  0  0  0  0  0
   -0.3643   -0.7899   -0.6099 O   0  0  0  0  0  0  0  0  0  0  0  0
    0.9698   -0.3214   -0.3565 C   0  0  0  0  0  0  0  0  0  0  0  0
    1.1585   -0.1528    1.0463 O   0  0  0  0  0  0  0  0  0  0  0  0
    2.4262    0.4822    1.3593 C   0  0  0  0  0  0  0  0  0  0  0  0
    2.7340    0.1012    2.8141 C   0  0  0  0  0  0  0  0  0  0  0  0
    1.7611    0.6463    3.6987 O   0  0  0  0  0  0  0  0  0  0  0  0
    3.5674    0.0362    0.4215 C   0  0  0  0  0  0  0  0  0  0  0  0
    3.2845   -1.3615   -0.1365 C   0  0  0  0  0  0  0  0  0  0  0  0
    1.9336   -1.4147   -0.8717 C   0  0  0  0  0  0  0  0  0  0  0  0
    2.1528   -1.2929   -2.2925 O   0  0  0  0  0  0  0  0  0  0  0  0
    4.3440   -1.7529   -1.0220 O   0  0  0  0  0  0  0  0  0  0  0  0
    3.6598    0.9575   -0.6800 O   0  0  0  0  0  0  0  0  0  0  0  0
   -1.2467    0.1207    2.0657 O   0  0  0  0  0  0  0  0  0  0  0  0
   -4.0482    0.4659    2.2622 O   0  0  0  0  0  0  0  0  0  0  0  0
   -0.8116    1.9449   -3.7538 H   0  0  0  0  0  0  0  0  0  0  0  0
   -2.5305    0.6231   -3.6634 H   0  0  0  0  0  0  0  0  0  0  0  0
   -1.1102   -0.3667   -3.2345 H   0  0  0  0  0  0  0  0  0  0  0  0
   -2.8087   -0.8721   -1.6306 H   0  0  0  0  0  0  0  0  0  0  0  0
   -5.0163    1.5270   -0.0676 H   0  0  0  0  0  0  0  0  0  0  0  0
   -5.1001   -0.6851    0.7044 H   0  0  0  0  0  0  0  0  0  0  0  0
   -2.9655    1.8885    1.2424 H   0  0  0  0  0  0  0  0  0  0  0  0
   -2.4178   -1.1232    0.9745 H   0  0  0  0  0  0  0  0  0  0  0  0
   -0.9292    1.2136   -0.3405 H   0  0  0  0  0  0  0  0  0  0  0  0
    1.1185    0.6221   -0.8991 H   0  0  0  0  0  0  0  0  0  0  0  0
    2.2613    1.5618    1.2961 H   0  0  0  0  0  0  0  0  0  0  0  0
    3.7115    0.4766    3.1263 H   0  0  0  0  0  0  0  0  0  0  0  0
    2.7189   -0.9846    2.9382 H   0  0  0  0  0  0  0  0  0  0  0  0
    0.8879    0.6046    3.2492 H   0  0  0  0  0  0  0  0  0  0  0  0
    4.5420    0.0760    0.9217 H   0  0  0  0  0  0  0  0  0  0  0  0
    3.2753   -2.0747    0.6947 H   0  0  0  0  0  0  0  0  0  0  0  0
    1.5009   -2.4121   -0.7231 H   0  0  0  0  0  0  0  0  0  0  0  0
    1.2682   -1.3095   -2.7007 H   0  0  0  0  0  0  0  0  0  0  0  0
    3.9605   -1.6901   -1.9266 H   0  0  0  0  0  0  0  0  0  0  0  0
    4.3137    0.5677   -1.2932 H   0  0  0  0  0  0  0  0  0  0  0  0
   -0.3969   -0.2967    1.8078 H   0  0  0  0  0  0  0  0  0  0  0  0
   -3.3717    0.3961    2.9676 H   0  0  0  0  0  0  0  0  0  0  0  0
  1  2  1  0
  2  3  1  0
  3  4  1  0
  4  5  1  0
  5  6  1  0
  5  7  1  0
  7  8  1  0
  8  9  1  0
  9 10  1  0
 10 11  1  0
 11 12  1  0
 12 13  1  0
 13 14  1  0
 14 15  1  0
 13 16  1  0
 16 17  1  0
 17 18  1  0
 18 19  1  0
 17 20  1  0
 16 21  1  0
  8 22  1  0
  7 23  1  0
  9  3  1  0
 18 11  1  0
  1 24  1  0
  2 25  1  0
  2 26  1  0
  3 27  1  0
  5 28  1  0
  6 29  1  0
  7 30  1  0
  8 31  1  0
  9 32  1  0
 11 33  1  0
 13 34  1  0
 14 35  1  0
 14 36  1  0
 15 37  1  0
 16 38  1  0
 17 39  1  0
 18 40  1  0
 19 41  1  0
 20 42  1  0
 21 43  1  0
 22 44  1  0
 23 45  1  0
M  END
