
     RDKit          3D

 23 23  0  0  0  0  0  0  0  0999 V2000
   -3.8485   -0.0511   -0.0006 C   0  0  0  0  0  0  0  0  0  0  0  0
   -2.4600   -0.6241   -0.2209 C   0  0  0  0  0  0  0  0  0  0  0  0
   -1.5158    0.4274   -0.0282 O   0  0  0  0  0  0  0  0  0  0  0  0
   -0.1837    0.0911   -0.0643 C   0  0  0  0  0  0  0  0  0  0  0  0
    0.3189   -1.1478   -0.4749 C   0  0  0  0  0  0  0  0  0  0  0  0
    1.6969   -1.3827   -0.4710 C   0  0  0  0  0  0  0  0  0  0  0  0
    2.5700   -0.3744   -0.0452 C   0  0  0  0  0  0  0  0  0  0  0  0
    2.0784    0.8707    0.3630 C   0  0  0  0  0  0  0  0  0  0  0  0
    0.7043    1.1224    0.3163 C   0  0  0  0  0  0  0  0  0  0  0  0
    0.2058    2.3272    0.8483 N   0  0  0  0  0  0  0  0  0  0  0  0
    4.0149   -0.6282   -0.0180 N   0  0  0  0  0  4  0  0  0  0  0  0
    4.7621    0.3134    0.2832 O   0  0  0  0  0  1  0  0  0  0  0  0
    4.4041   -1.7698   -0.3036 O   0  0  0  0  0  0  0  0  0  0  0  0
   -4.0415    0.7710   -0.6978 H   0  0  0  0  0  0  0  0  0  0  0  0
   -4.6141   -0.8195   -0.1397 H   0  0  0  0  0  0  0  0  0  0  0  0
   -3.9396    0.3603    1.0102 H   0  0  0  0  0  0  0  0  0  0  0  0
   -2.3911   -1.0095   -1.2444 H   0  0  0  0  0  0  0  0  0  0  0  0
   -2.2879   -1.4323    0.4995 H   0  0  0  0  0  0  0  0  0  0  0  0
   -0.3343   -1.9503   -0.8023 H   0  0  0  0  0  0  0  0  0  0  0  0
    2.0689   -2.3540   -0.7914 H   0  0  0  0  0  0  0  0  0  0  0  0
    2.7511    1.6445    0.7250 H   0  0  0  0  0  0  0  0  0  0  0  0
    0.8010    3.1341    0.6971 H   0  0  0  0  0  0  0  0  0  0  0  0
   -0.7599    2.4816    0.5593 H   0  0  0  0  0  0  0  0  0  0  0  0
  1  2  1  0
  2  3  1  0
  3  4  1  0
  4  5  2  0
  5  6  1  0
  6  7  2  0
  7  8  1  0
  8  9  2  0
  9 10  1  0
  7 11  1  0
 11 12  1  0
 11 13  2  0
  9  4  1  0
  1 14  1  0
  1 15  1  0
  1 16  1  0
  2 17  1  0
  2 18  1  0
  5 19  1  0
  6 20  1  0
  8 21  1  0
 10 22  1  0
 10 23  1  0
M  CHG  2  11   1  12  -1
M  END
