
     RDKit          3D

 29 29  0  0  0  0  0  0  0  0999 V2000
    4.7376    0.0113    0.3835 C   0  0  0  0  0  0  0  0  0  0  0  0
    3.2949   -0.3264    0.0415 C   0  0  0  0  0  0  0  0  0  0  0  0
    2.4653   -0.5759    1.3033 C   0  0  0  0  0  0  0  0  0  0  0  0
    1.0194   -0.9522    0.9805 C   0  0  0  0  0  0  0  0  0  0  0  0
    0.3949    0.1470    0.3195 O   0  0  0  0  0  0  0  0  0  0  0  0
   -0.9444    0.0359    0.0335 C   0  0  0  0  0  0  0  0  0  0  0  0
   -1.7063   -1.1253    0.1968 C   0  0  0  0  0  0  0  0  0  0  0  0
   -3.0667   -1.1234   -0.1252 C   0  0  0  0  0  0  0  0  0  0  0  0
   -3.6639    0.0496   -0.6023 C   0  0  0  0  0  0  0  0  0  0  0  0
   -2.9102    1.2163   -0.7731 C   0  0  0  0  0  0  0  0  0  0  0  0
   -1.5405    1.2033   -0.4948 C   0  0  0  0  0  0  0  0  0  0  0  0
   -0.8153    2.4094   -0.5449 N   0  0  0  0  0  0  0  0  0  0  0  0
   -5.0968    0.0590   -0.9177 N   0  0  0  0  0  4  0  0  0  0  0  0
   -5.5727    1.0888   -1.4164 O   0  0  0  0  0  1  0  0  0  0  0  0
   -5.7470   -0.9672   -0.6717 O   0  0  0  0  0  0  0  0  0  0  0  0
    4.7938    0.9161    0.9971 H   0  0  0  0  0  0  0  0  0  0  0  0
    5.2126   -0.8075    0.9334 H   0  0  0  0  0  0  0  0  0  0  0  0
    5.3132    0.1847   -0.5312 H   0  0  0  0  0  0  0  0  0  0  0  0
    3.2761   -1.2170   -0.5973 H   0  0  0  0  0  0  0  0  0  0  0  0
    2.8644    0.4980   -0.5384 H   0  0  0  0  0  0  0  0  0  0  0  0
    2.9211   -1.3804    1.8920 H   0  0  0  0  0  0  0  0  0  0  0  0
    2.4734    0.3324    1.9182 H   0  0  0  0  0  0  0  0  0  0  0  0
    0.4978   -1.1706    1.9201 H   0  0  0  0  0  0  0  0  0  0  0  0
    1.0081   -1.8387    0.3353 H   0  0  0  0  0  0  0  0  0  0  0  0
   -1.2732   -2.0459    0.5742 H   0  0  0  0  0  0  0  0  0  0  0  0
   -3.6438   -2.0360    0.0112 H   0  0  0  0  0  0  0  0  0  0  0  0
   -3.3776    2.1378   -1.1120 H   0  0  0  0  0  0  0  0  0  0  0  0
    0.1889    2.2317   -0.5381 H   0  0  0  0  0  0  0  0  0  0  0  0
   -1.1031    3.0455   -1.2803 H   0  0  0  0  0  0  0  0  0  0  0  0
  1  2  1  0
  2  3  1  0
  3  4  1  0
  4  5  1  0
  5  6  1  0
  6  7  2  0
  7  8  1  0
  8  9  2  0
  9 10  1  0
 10 11  2  0
 11 12  1  0
  9 13  1  0
 13 14  1  0
 13 15  2  0
 11  6  1  0
  1 16  1  0
  1 17  1  0
  1 18  1  0
  2 19  1  0
  2 20  1  0
  3 21  1  0
  3 22  1  0
  4 23  1  0
  4 24  1  0
  7 25  1  0
  8 26  1  0
 10 27  1  0
 12 28  1  0
 12 29  1  0
M  CHG  2  13   1  14  -1
M  END
