
     RDKit          3D

 16 16  0  0  0  0  0  0  0  0999 V2000
    2.6131   -1.6857   -1.0927 O   0  0  0  0  0  1  0  0  0  0  0  0
    2.5445   -0.5814   -0.5350 N   0  0  0  0  0  4  0  0  0  0  0  0
    3.5205    0.1337   -0.2681 O   0  0  0  0  0  0  0  0  0  0  0  0
    1.2130   -0.0814   -0.1703 C   0  0  0  0  0  0  0  0  0  0  0  0
    1.0822    1.2009    0.3832 C   0  0  0  0  0  0  0  0  0  0  0  0
   -0.1827    1.6587    0.7498 C   0  0  0  0  0  0  0  0  0  0  0  0
   -1.2946    0.8432    0.5489 C   0  0  0  0  0  0  0  0  0  0  0  0
   -1.1859   -0.4222   -0.0504 C   0  0  0  0  0  0  0  0  0  0  0  0
    0.0882   -0.8986   -0.3709 C   0  0  0  0  0  0  0  0  0  0  0  0
   -2.2949   -1.2786   -0.1263 N   0  0  0  0  0  0  0  0  0  0  0  0
   -2.5021    1.2944    0.9223 F   0  0  0  0  0  0  0  0  0  0  0  0
    1.9476    1.8404    0.5456 H   0  0  0  0  0  0  0  0  0  0  0  0
   -0.3120    2.6389    1.1991 H   0  0  0  0  0  0  0  0  0  0  0  0
    0.1977   -1.9053   -0.7686 H   0  0  0  0  0  0  0  0  0  0  0  0
   -3.1836   -0.7809   -0.1040 H   0  0  0  0  0  0  0  0  0  0  0  0
   -2.2512   -1.9761   -0.8625 H   0  0  0  0  0  0  0  0  0  0  0  0
  1  2  1  0
  2  3  2  0
  2  4  1  0
  4  5  2  0
  5  6  1  0
  6  7  2  0
  7  8  1  0
  8  9  2  0
  8 10  1  0
  7 11  1  0
  9  4  1  0
  5 12  1  0
  6 13  1  0
  9 14  1  0
 10 15  1  0
 10 16  1  0
M  CHG  2   1  -1   2   1
M  END
