
     RDKit          3D

 16 16  0  0  0  0  0  0  0  0999 V2000
    2.3808   -2.2067    0.6696 O   0  0  0  0  0  1  0  0  0  0  0  0
    2.4596   -1.0481    0.2379 N   0  0  0  0  0  4  0  0  0  0  0  0
    3.5207   -0.4697   -0.0353 O   0  0  0  0  0  0  0  0  0  0  0  0
    1.2077   -0.3100    0.0287 C   0  0  0  0  0  0  0  0  0  0  0  0
    1.2444    0.9689   -0.5414 C   0  0  0  0  0  0  0  0  0  0  0  0
    0.0526    1.6738   -0.7147 C   0  0  0  0  0  0  0  0  0  0  0  0
   -1.1624    1.0966   -0.3321 C   0  0  0  0  0  0  0  0  0  0  0  0
   -1.2148   -0.2093    0.1957 C   0  0  0  0  0  0  0  0  0  0  0  0
   -0.0110   -0.8909    0.4119 C   0  0  0  0  0  0  0  0  0  0  0  0
   -2.4058   -0.7549    0.7048 N   0  0  0  0  0  0  0  0  0  0  0  0
   -2.6112    2.0152   -0.5530 Cl  0  0  0  0  0  0  0  0  0  0  0  0
    2.1835    1.4309   -0.8400 H   0  0  0  0  0  0  0  0  0  0  0  0
    0.0753    2.6749   -1.1393 H   0  0  0  0  0  0  0  0  0  0  0  0
   -0.0311   -1.8705    0.8853 H   0  0  0  0  0  0  0  0  0  0  0  0
   -2.4461   -1.7693    0.7157 H   0  0  0  0  0  0  0  0  0  0  0  0
   -3.2423   -0.3309    0.3062 H   0  0  0  0  0  0  0  0  0  0  0  0
  1  2  1  0
  2  3  2  0
  2  4  1  0
  4  5  2  0
  5  6  1  0
  6  7  2  0
  7  8  1  0
  8  9  2  0
  8 10  1  0
  7 11  1  0
  9  4  1  0
  5 12  1  0
  6 13  1  0
  9 14  1  0
 10 15  1  0
 10 16  1  0
M  CHG  2   1  -1   2   1
M  END
