
     RDKit          3D

 16 16  0  0  0  0  0  0  0  0999 V2000
    3.4490    0.2314    0.8522 O   0  0  0  0  0  1  0  0  0  0  0  0
    2.3589   -0.1659    1.2875 N   0  0  0  0  0  4  0  0  0  0  0  0
    2.1974   -0.7075    2.3902 O   0  0  0  0  0  0  0  0  0  0  0  0
    1.1759    0.0248    0.4396 C   0  0  0  0  0  0  0  0  0  0  0  0
    1.2972    0.7113   -0.7746 C   0  0  0  0  0  0  0  0  0  0  0  0
    0.1732    0.8664   -1.5861 C   0  0  0  0  0  0  0  0  0  0  0  0
   -1.0610    0.3497   -1.1764 C   0  0  0  0  0  0  0  0  0  0  0  0
   -1.2045   -0.2970    0.0661 C   0  0  0  0  0  0  0  0  0  0  0  0
   -0.0617   -0.4925    0.8512 C   0  0  0  0  0  0  0  0  0  0  0  0
   -2.3989   -0.9345    0.4386 N   0  0  0  0  0  0  0  0  0  0  0  0
   -2.5502    0.5748   -2.3362 Br  0  0  0  0  0  0  0  0  0  0  0  0
    2.2521    1.1146   -1.1060 H   0  0  0  0  0  0  0  0  0  0  0  0
    0.2683    1.3819   -2.5392 H   0  0  0  0  0  0  0  0  0  0  0  0
   -0.1432   -1.0543    1.7795 H   0  0  0  0  0  0  0  0  0  0  0  0
   -3.2211   -0.5529   -0.0250 H   0  0  0  0  0  0  0  0  0  0  0  0
   -2.5316   -1.0503    1.4386 H   0  0  0  0  0  0  0  0  0  0  0  0
  1  2  1  0
  2  3  2  0
  2  4  1  0
  4  5  2  0
  5  6  1  0
  6  7  2  0
  7  8  1  0
  8  9  2  0
  8 10  1  0
  7 11  1  0
  9  4  1  0
  5 12  1  0
  6 13  1  0
  9 14  1  0
 10 15  1  0
 10 16  1  0
M  CHG  2   1  -1   2   1
M  END
