
     RDKit          3D

 16 16  0  0  0  0  0  0  0  0999 V2000
    2.7547   -1.6077   -0.9672 O   0  0  0  0  0  1  0  0  0  0  0  0
    2.6147   -0.4700   -0.4967 N   0  0  0  0  0  4  0  0  0  0  0  0
    3.5436    0.3226   -0.2858 O   0  0  0  0  0  0  0  0  0  0  0  0
    1.2535   -0.0269   -0.1723 C   0  0  0  0  0  0  0  0  0  0  0  0
    1.0393    1.2811    0.2767 C   0  0  0  0  0  0  0  0  0  0  0  0
   -0.2541    1.6863    0.6067 C   0  0  0  0  0  0  0  0  0  0  0  0
   -1.3235    0.7912    0.4741 C   0  0  0  0  0  0  0  0  0  0  0  0
   -1.1260   -0.5104   -0.0262 C   0  0  0  0  0  0  0  0  0  0  0  0
    0.1828   -0.9234   -0.3066 C   0  0  0  0  0  0  0  0  0  0  0  0
   -2.1512   -1.4690   -0.0488 N   0  0  0  0  0  0  0  0  0  0  0  0
   -3.2341    1.4749    1.0160 I   0  0  0  0  0  0  0  0  0  0  0  0
    1.8616    1.9852    0.3878 H   0  0  0  0  0  0  0  0  0  0  0  0
   -0.4142    2.6976    0.9746 H   0  0  0  0  0  0  0  0  0  0  0  0
    0.3604   -1.9490   -0.6241 H   0  0  0  0  0  0  0  0  0  0  0  0
   -3.0836   -1.0629   -0.0874 H   0  0  0  0  0  0  0  0  0  0  0  0
   -2.0239   -2.2195   -0.7209 H   0  0  0  0  0  0  0  0  0  0  0  0
  1  2  1  0
  2  3  2  0
  2  4  1  0
  4  5  2  0
  5  6  1  0
  6  7  2  0
  7  8  1  0
  8  9  2  0
  8 10  1  0
  7 11  1  0
  9  4  1  0
  5 12  1  0
  6 13  1  0
  9 14  1  0
 10 15  1  0
 10 16  1  0
M  CHG  2   1  -1   2   1
M  END
