
     RDKit          3D

 19 19  0  0  0  0  0  0  0  0999 V2000
    3.7103    0.9640    0.3703 O   0  0  0  0  0  1  0  0  0  0  0  0
    3.2027   -0.1363    0.1091 N   0  0  0  0  0  4  0  0  0  0  0  0
    3.8476   -1.1748   -0.0966 O   0  0  0  0  0  0  0  0  0  0  0  0
    1.7395   -0.2174    0.0451 C   0  0  0  0  0  0  0  0  0  0  0  0
    1.1232   -1.4535   -0.1623 C   0  0  0  0  0  0  0  0  0  0  0  0
   -0.2670   -1.5130   -0.2501 C   0  0  0  0  0  0  0  0  0  0  0  0
   -1.0472   -0.3503   -0.1171 C   0  0  0  0  0  0  0  0  0  0  0  0
   -0.4239    0.8837    0.1557 C   0  0  0  0  0  0  0  0  0  0  0  0
    0.9747    0.9478    0.1844 C   0  0  0  0  0  0  0  0  0  0  0  0
   -1.1533    2.0812    0.1809 N   0  0  0  0  0  0  0  0  0  0  0  0
   -2.5419   -0.4590   -0.2617 C   0  0  0  0  0  0  0  0  0  0  0  0
    1.7032   -2.3670   -0.2742 H   0  0  0  0  0  0  0  0  0  0  0  0
   -0.7422   -2.4743   -0.4383 H   0  0  0  0  0  0  0  0  0  0  0  0
    1.4609    1.9120    0.3161 H   0  0  0  0  0  0  0  0  0  0  0  0
   -2.1189    1.9807    0.4762 H   0  0  0  0  0  0  0  0  0  0  0  0
   -0.6887    2.8458    0.6620 H   0  0  0  0  0  0  0  0  0  0  0  0
   -3.0329   -0.1922    0.6796 H   0  0  0  0  0  0  0  0  0  0  0  0
   -2.8493   -1.4782   -0.5191 H   0  0  0  0  0  0  0  0  0  0  0  0
   -2.8967    0.2008   -1.0601 H   0  0  0  0  0  0  0  0  0  0  0  0
  1  2  1  0
  2  3  2  0
  2  4  1  0
  4  5  2  0
  5  6  1  0
  6  7  2  0
  7  8  1  0
  8  9  2  0
  8 10  1  0
  7 11  1  0
  9  4  1  0
  5 12  1  0
  6 13  1  0
  9 14  1  0
 10 15  1  0
 10 16  1  0
 11 17  1  0
 11 18  1  0
 11 19  1  0
M  CHG  2   1  -1   2   1
M  END
