
     RDKit          3D

 21 21  0  0  0  0  0  0  0  0999 V2000
    3.9425   -0.4025    0.5260 C   0  0  0  0  0  0  0  0  0  0  0  0
    2.6163   -0.2606    0.5638 C   0  0  0  0  0  0  0  0  0  0  0  0
    1.8350   -0.4360   -0.5548 O   0  0  0  0  0  0  0  0  0  0  0  0
    0.4762   -0.3377   -0.3523 C   0  0  0  0  0  0  0  0  0  0  0  0
   -0.2343   -1.5034   -0.0518 C   0  0  0  0  0  0  0  0  0  0  0  0
   -1.6127   -1.4385    0.1442 C   0  0  0  0  0  0  0  0  0  0  0  0
   -2.2623   -0.2006    0.0385 C   0  0  0  0  0  0  0  0  0  0  0  0
   -1.5472    0.9654   -0.2792 C   0  0  0  0  0  0  0  0  0  0  0  0
   -0.1736    0.8975   -0.5271 C   0  0  0  0  0  0  0  0  0  0  0  0
    0.5561    2.0799   -0.7267 N   0  0  0  0  0  0  0  0  0  0  0  0
   -3.7096   -0.1201    0.2696 N   0  0  0  0  0  4  0  0  0  0  0  0
   -4.2641    0.9728    0.0856 O   0  0  0  0  0  1  0  0  0  0  0  0
   -4.2932   -1.1515    0.6323 O   0  0  0  0  0  0  0  0  0  0  0  0
    4.5430   -0.2538    1.4165 H   0  0  0  0  0  0  0  0  0  0  0  0
    4.4499   -0.6698   -0.3948 H   0  0  0  0  0  0  0  0  0  0  0  0
    2.0798    0.0099    1.4649 H   0  0  0  0  0  0  0  0  0  0  0  0
    0.2892   -2.4520    0.0358 H   0  0  0  0  0  0  0  0  0  0  0  0
   -2.1590   -2.3480    0.3853 H   0  0  0  0  0  0  0  0  0  0  0  0
   -2.0520    1.9275   -0.3330 H   0  0  0  0  0  0  0  0  0  0  0  0
    1.4723    1.9049   -1.1371 H   0  0  0  0  0  0  0  0  0  0  0  0
    0.0478    2.8165   -1.2057 H   0  0  0  0  0  0  0  0  0  0  0  0
  1  2  2  0
  2  3  1  0
  3  4  1  0
  4  5  2  0
  5  6  1  0
  6  7  2  0
  7  8  1  0
  8  9  2  0
  9 10  1  0
  7 11  1  0
 11 12  1  0
 11 13  2  0
  9  4  1  0
  1 14  1  0
  1 15  1  0
  2 16  1  0
  5 17  1  0
  6 18  1  0
  8 19  1  0
 10 20  1  0
 10 21  1  0
M  CHG  2  11   1  12  -1
M  END
