
     RDKit          3D

 26 26  0  0  0  0  0  0  0  0999 V2000
   -3.2027   -0.2231    0.8357 C   0  0  0  0  0  0  0  0  0  0  0  0
   -2.0555    0.3712    0.0262 C   0  0  0  0  0  0  0  0  0  0  0  0
   -1.1847   -0.7052   -0.3614 O   0  0  0  0  0  0  0  0  0  0  0  0
    0.1177   -0.4967    0.0227 C   0  0  0  0  0  0  0  0  0  0  0  0
    0.4687   -0.4949    1.3752 C   0  0  0  0  0  0  0  0  0  0  0  0
    1.8005   -0.3041    1.7422 C   0  0  0  0  0  0  0  0  0  0  0  0
    2.7683   -0.1191    0.7450 C   0  0  0  0  0  0  0  0  0  0  0  0
    2.4180   -0.1460   -0.6132 C   0  0  0  0  0  0  0  0  0  0  0  0
    1.0938   -0.3889   -0.9841 C   0  0  0  0  0  0  0  0  0  0  0  0
    0.7175   -0.3037   -2.3359 N   0  0  0  0  0  0  0  0  0  0  0  0
    4.1671    0.1088    1.1265 N   0  0  0  0  0  4  0  0  0  0  0  0
    4.4241    0.2178    2.3340 O   0  0  0  0  0  1  0  0  0  0  0  0
    5.0098    0.1762    0.2204 O   0  0  0  0  0  0  0  0  0  0  0  0
   -2.5815    1.0311   -1.2444 C   0  0  0  0  0  0  0  0  0  0  0  0
   -2.8224   -0.7125    1.7384 H   0  0  0  0  0  0  0  0  0  0  0  0
   -3.9191    0.5481    1.1347 H   0  0  0  0  0  0  0  0  0  0  0  0
   -3.7326   -0.9914    0.2617 H   0  0  0  0  0  0  0  0  0  0  0  0
   -1.5451    1.1328    0.6308 H   0  0  0  0  0  0  0  0  0  0  0  0
   -0.2880   -0.6433    2.1402 H   0  0  0  0  0  0  0  0  0  0  0  0
    2.0650   -0.2964    2.7976 H   0  0  0  0  0  0  0  0  0  0  0  0
    3.1665    0.0210   -1.3842 H   0  0  0  0  0  0  0  0  0  0  0  0
    1.4253   -0.6258   -2.9878 H   0  0  0  0  0  0  0  0  0  0  0  0
   -0.1885   -0.7450   -2.4917 H   0  0  0  0  0  0  0  0  0  0  0  0
   -3.0739    0.2989   -1.8939 H   0  0  0  0  0  0  0  0  0  0  0  0
   -3.2922    1.8302   -1.0124 H   0  0  0  0  0  0  0  0  0  0  0  0
   -1.7560    1.4599   -1.8223 H   0  0  0  0  0  0  0  0  0  0  0  0
  1  2  1  0
  2  3  1  0
  3  4  1  0
  4  5  2  0
  5  6  1  0
  6  7  2  0
  7  8  1  0
  8  9  2  0
  9 10  1  0
  7 11  1  0
 11 12  1  0
 11 13  2  0
  2 14  1  0
  9  4  1  0
  1 15  1  0
  1 16  1  0
  1 17  1  0
  2 18  1  0
  5 19  1  0
  6 20  1  0
  8 21  1  0
 10 22  1  0
 10 23  1  0
 14 24  1  0
 14 25  1  0
 14 26  1  0
M  CHG  2  11   1  12  -1
M  END
