
     RDKit          3D

 17 17  0  0  0  0  0  0  0  0999 V2000
    3.6111   -0.1575    0.8143 O   0  0  0  0  0  1  0  0  0  0  0  0
    2.6473   -0.8832    0.5316 N   0  0  0  0  0  4  0  0  0  0  0  0
    2.6989   -2.1189    0.4493 O   0  0  0  0  0  0  0  0  0  0  0  0
    1.3560   -0.2351    0.2723 C   0  0  0  0  0  0  0  0  0  0  0  0
    1.2694    1.1652    0.2854 C   0  0  0  0  0  0  0  0  0  0  0  0
    0.0341    1.7742    0.0718 C   0  0  0  0  0  0  0  0  0  0  0  0
   -1.0822    0.9803   -0.1675 C   0  0  0  0  0  0  0  0  0  0  0  0
   -0.9971   -0.4168   -0.2658 C   0  0  0  0  0  0  0  0  0  0  0  0
    0.2242   -1.0280    0.0173 C   0  0  0  0  0  0  0  0  0  0  0  0
   -2.1604   -1.1833   -0.4694 N   0  0  0  0  0  0  0  0  0  0  0  0
   -2.3007    1.5937   -0.2658 O   0  0  0  0  0  0  0  0  0  0  0  0
    2.1404    1.7867    0.4822 H   0  0  0  0  0  0  0  0  0  0  0  0
   -0.0658    2.8551    0.1199 H   0  0  0  0  0  0  0  0  0  0  0  0
    0.2959   -2.1129    0.0230 H   0  0  0  0  0  0  0  0  0  0  0  0
   -2.7643   -0.7727   -1.1805 H   0  0  0  0  0  0  0  0  0  0  0  0
   -1.9607   -2.1533   -0.7055 H   0  0  0  0  0  0  0  0  0  0  0  0
   -2.9460    0.9066   -0.0126 H   0  0  0  0  0  0  0  0  0  0  0  0
  1  2  1  0
  2  3  2  0
  2  4  1  0
  4  5  2  0
  5  6  1  0
  6  7  2  0
  7  8  1  0
  8  9  2  0
  8 10  1  0
  7 11  1  0
  9  4  1  0
  5 12  1  0
  6 13  1  0
  9 14  1  0
 10 15  1  0
 10 16  1  0
 11 17  1  0
M  CHG  2   1  -1   2   1
M  END
