
     RDKit          3D

 45 46  0  0  0  0  0  0  0  0999 V2000
    0.9653   -2.1904    2.2497 O   0  0  0  0  0  0  0  0  0  0  0  0
    1.1101   -1.8449    0.8675 C   0  0  0  0  0  0  0  0  0  0  0  0
    1.4915   -0.3602    0.7685 C   0  0  0  0  0  0  0  0  0  0  0  0
    2.9068   -0.2412    1.0519 O   0  0  0  0  0  0  0  0  0  0  0  0
    3.6044   -0.2114   -0.2103 C   0  0  0  0  0  0  0  0  0  0  0  0
    2.5398   -0.2369   -1.3304 C   0  0  0  0  0  0  0  0  0  0  0  0
    1.3138    0.2863   -0.6032 C   0  0  0  0  0  0  0  0  0  0  0  0
    0.1213   -0.0145   -1.3263 O   0  0  0  0  0  0  0  0  0  0  0  0
   -1.0474    0.5569   -0.7085 C   0  0  0  0  0  0  0  0  0  0  0  0
   -1.3732   -0.2190    0.4401 O   0  0  0  0  0  0  0  0  0  0  0  0
   -2.5176    0.2805    1.1447 C   0  0  0  0  0  0  0  0  0  0  0  0
   -2.7060   -0.6072    2.3822 C   0  0  0  0  0  0  0  0  0  0  0  0
   -1.5485   -0.5570    3.2157 O   0  0  0  0  0  0  0  0  0  0  0  0
   -3.7682    0.2578    0.2443 C   0  0  0  0  0  0  0  0  0  0  0  0
   -3.4888    0.9892   -1.0810 C   0  0  0  0  0  0  0  0  0  0  0  0
   -2.2013    0.4889   -1.7302 C   0  0  0  0  0  0  0  0  0  0  0  0
   -2.3904   -0.8638   -2.1813 O   0  0  0  0  0  0  0  0  0  0  0  0
   -3.3894    2.3987   -0.8272 O   0  0  0  0  0  0  0  0  0  0  0  0
   -4.8761    0.9161    0.8749 O   0  0  0  0  0  0  0  0  0  0  0  0
    2.8588    0.5644   -2.4728 O   0  0  0  0  0  0  0  0  0  0  0  0
    4.4020   -1.3891   -0.3253 O   0  0  0  0  0  0  0  0  0  0  0  0
    4.5089    1.0407   -0.2371 C   0  0  0  0  0  0  0  0  0  0  0  0
    5.3324    1.0649   -1.4032 O   0  0  0  0  0  0  0  0  0  0  0  0
    1.8349   -2.0145    2.6598 H   0  0  0  0  0  0  0  0  0  0  0  0
    1.8795   -2.5000    0.4475 H   0  0  0  0  0  0  0  0  0  0  0  0
    0.1634   -2.0770    0.3773 H   0  0  0  0  0  0  0  0  0  0  0  0
    0.9615    0.2092    1.5400 H   0  0  0  0  0  0  0  0  0  0  0  0
    2.3744   -1.2567   -1.6994 H   0  0  0  0  0  0  0  0  0  0  0  0
    1.4045    1.3788   -0.5254 H   0  0  0  0  0  0  0  0  0  0  0  0
   -0.8449    1.5972   -0.4228 H   0  0  0  0  0  0  0  0  0  0  0  0
   -2.2962    1.2992    1.4889 H   0  0  0  0  0  0  0  0  0  0  0  0
   -2.8672   -1.6538    2.1019 H   0  0  0  0  0  0  0  0  0  0  0  0
   -3.5579   -0.2715    2.9804 H   0  0  0  0  0  0  0  0  0  0  0  0
   -0.8503   -1.0761    2.7636 H   0  0  0  0  0  0  0  0  0  0  0  0
   -4.0556   -0.7766    0.0191 H   0  0  0  0  0  0  0  0  0  0  0  0
   -4.3407    0.8463   -1.7557 H   0  0  0  0  0  0  0  0  0  0  0  0
   -1.9417    1.0904   -2.6087 H   0  0  0  0  0  0  0  0  0  0  0  0
   -1.4929   -1.2457   -2.2444 H   0  0  0  0  0  0  0  0  0  0  0  0
   -4.1775    2.6064   -0.2813 H   0  0  0  0  0  0  0  0  0  0  0  0
   -5.2665    0.2962    1.5175 H   0  0  0  0  0  0  0  0  0  0  0  0
    2.0845    0.5028   -3.0658 H   0  0  0  0  0  0  0  0  0  0  0  0
    5.3292   -1.0907   -0.3719 H   0  0  0  0  0  0  0  0  0  0  0  0
    3.9214    1.9638   -0.1897 H   0  0  0  0  0  0  0  0  0  0  0  0
    5.1761    1.0388    0.6317 H   0  0  0  0  0  0  0  0  0  0  0  0
    4.7135    1.0247   -2.1652 H   0  0  0  0  0  0  0  0  0  0  0  0
  1  2  1  0
  2  3  1  0
  3  4  1  0
  4  5  1  0
  5  6  1  0
  6  7  1  0
  7  8  1  0
  8  9  1  0
  9 10  1  0
 10 11  1  0
 11 12  1  0
 12 13  1  0
 11 14  1  0
 14 15  1  0
 15 16  1  0
 16 17  1  0
 15 18  1  0
 14 19  1  0
  6 20  1  0
  5 21  1  0
  5 22  1  0
 22 23  1  0
  7  3  1  0
 16  9  1  0
  1 24  1  0
  2 25  1  0
  2 26  1  0
  3 27  1  0
  6 28  1  0
  7 29  1  0
  9 30  1  0
 11 31  1  0
 12 32  1  0
 12 33  1  0
 13 34  1  0
 14 35  1  0
 15 36  1  0
 16 37  1  0
 17 38  1  0
 18 39  1  0
 19 40  1  0
 20 41  1  0
 21 42  1  0
 22 43  1  0
 22 44  1  0
 23 45  1  0
M  END
