
     RDKit          3D

 19 20  0  0  0  0  0  0  0  0999 V2000
   -3.0244   -1.5569   -0.4041 O   0  0  0  0  0  0  0  0  0  0  0  0
   -2.2161   -0.6933   -0.1351 C   0  0  0  0  0  0  0  0  0  0  0  0
   -2.5376    0.6413    0.1686 N   0  0  0  0  0  0  0  0  0  0  0  0
   -1.2125    1.6672    0.1434 S   0  0  0  0  0  6  0  0  0  0  0  0
   -1.2794    2.4035   -1.0927 O   0  0  0  0  0  0  0  0  0  0  0  0
   -1.0535    2.2477    1.4521 O   0  0  0  0  0  0  0  0  0  0  0  0
   -0.0830    0.3637   -0.0181 C   0  0  0  0  0  0  0  0  0  0  0  0
   -0.7518   -0.8482   -0.1385 C   0  0  0  0  0  0  0  0  0  0  0  0
   -0.0576   -2.0474   -0.2311 C   0  0  0  0  0  0  0  0  0  0  0  0
    1.3393   -2.0112   -0.1623 C   0  0  0  0  0  0  0  0  0  0  0  0
    2.0160   -0.7896    0.0038 C   0  0  0  0  0  0  0  0  0  0  0  0
    1.2904    0.4100    0.0815 C   0  0  0  0  0  0  0  0  0  0  0  0
    1.9979    1.6600    0.2867 N   0  0  0  0  0  4  0  0  0  0  0  0
    2.9705    1.6350    1.0509 O   0  0  0  0  0  1  0  0  0  0  0  0
    1.6020    2.6465   -0.3396 O   0  0  0  0  0  0  0  0  0  0  0  0
   -3.4248    0.9919   -0.1820 H   0  0  0  0  0  0  0  0  0  0  0  0
   -0.5869   -2.9918   -0.3376 H   0  0  0  0  0  0  0  0  0  0  0  0
    1.9080   -2.9388   -0.2224 H   0  0  0  0  0  0  0  0  0  0  0  0
    3.1037   -0.7894    0.0764 H   0  0  0  0  0  0  0  0  0  0  0  0
  1  2  2  0
  2  3  1  0
  3  4  1  0
  4  5  2  0
  4  6  2  0
  4  7  1  0
  7  8  2  0
  8  9  1  0
  9 10  2  0
 10 11  1  0
 11 12  2  0
 12 13  1  0
 13 14  1  0
 13 15  2  0
  8  2  1  0
 12  7  1  0
  3 16  1  0
  9 17  1  0
 10 18  1  0
 11 19  1  0
M  CHG  2  13   1  14  -1
M  END
