
     RDKit          3D

 19 20  0  0  0  0  0  0  0  0999 V2000
    2.5232    2.3836    0.2515 O   0  0  0  0  0  0  0  0  0  0  0  0
    2.1070    1.2495    0.1383 C   0  0  0  0  0  0  0  0  0  0  0  0
    2.9031    0.0921    0.2144 N   0  0  0  0  0  0  0  0  0  0  0  0
    2.0234   -1.3256    0.3180 S   0  0  0  0  0  6  0  0  0  0  0  0
    2.2729   -2.1289   -0.8518 O   0  0  0  0  0  0  0  0  0  0  0  0
    2.0975   -1.8110    1.6729 O   0  0  0  0  0  0  0  0  0  0  0  0
    0.4988   -0.5111    0.1073 C   0  0  0  0  0  0  0  0  0  0  0  0
    0.6922    0.8608   -0.0055 C   0  0  0  0  0  0  0  0  0  0  0  0
   -0.3856    1.7140   -0.1882 C   0  0  0  0  0  0  0  0  0  0  0  0
   -1.6667    1.1507   -0.2728 C   0  0  0  0  0  0  0  0  0  0  0  0
   -1.8425   -0.2506   -0.1674 C   0  0  0  0  0  0  0  0  0  0  0  0
   -0.7482   -1.1065    0.0252 C   0  0  0  0  0  0  0  0  0  0  0  0
   -3.1965   -0.8174   -0.2607 N   0  0  0  0  0  4  0  0  0  0  0  0
   -3.3115   -2.0448   -0.1461 O   0  0  0  0  0  1  0  0  0  0  0  0
   -4.1358   -0.0326   -0.4470 O   0  0  0  0  0  0  0  0  0  0  0  0
    3.7872    0.1625    0.7094 H   0  0  0  0  0  0  0  0  0  0  0  0
   -0.2413    2.7894   -0.2619 H   0  0  0  0  0  0  0  0  0  0  0  0
   -2.5218    1.8111   -0.4189 H   0  0  0  0  0  0  0  0  0  0  0  0
   -0.8554   -2.1852    0.1061 H   0  0  0  0  0  0  0  0  0  0  0  0
  1  2  2  0
  2  3  1  0
  3  4  1  0
  4  5  2  0
  4  6  2  0
  4  7  1  0
  7  8  2  0
  8  9  1  0
  9 10  2  0
 10 11  1  0
 11 12  2  0
 11 13  1  0
 13 14  1  0
 13 15  2  0
  8  2  1  0
 12  7  1  0
  3 16  1  0
  9 17  1  0
 10 18  1  0
 12 19  1  0
M  CHG  2  13   1  14  -1
M  END
