
     RDKit          3D

 19 20  0  0  0  0  0  0  0  0999 V2000
   -1.6069    2.7582    0.1576 O   0  0  0  0  0  0  0  0  0  0  0  0
   -1.6118    1.5453    0.1812 C   0  0  0  0  0  0  0  0  0  0  0  0
   -2.7710    0.7485    0.1898 N   0  0  0  0  0  0  0  0  0  0  0  0
   -2.4752   -0.8752   -0.0775 S   0  0  0  0  0  6  0  0  0  0  0  0
   -2.8484   -1.6274    1.0934 O   0  0  0  0  0  0  0  0  0  0  0  0
   -2.8868   -1.1987   -1.4204 O   0  0  0  0  0  0  0  0  0  0  0  0
   -0.7456   -0.6603   -0.0653 C   0  0  0  0  0  0  0  0  0  0  0  0
   -0.4212    0.6798    0.1110 C   0  0  0  0  0  0  0  0  0  0  0  0
    0.9021    1.0916    0.1609 C   0  0  0  0  0  0  0  0  0  0  0  0
    1.8926    0.1014    0.0443 C   0  0  0  0  0  0  0  0  0  0  0  0
    1.5519   -1.2630   -0.1232 C   0  0  0  0  0  0  0  0  0  0  0  0
    0.2100   -1.6544   -0.1785 C   0  0  0  0  0  0  0  0  0  0  0  0
    3.3101    0.4893    0.0958 N   0  0  0  0  0  4  0  0  0  0  0  0
    3.5693    1.6884    0.2620 O   0  0  0  0  0  1  0  0  0  0  0  0
    4.1554   -0.4065   -0.0300 O   0  0  0  0  0  0  0  0  0  0  0  0
   -3.6261    1.1608   -0.1713 H   0  0  0  0  0  0  0  0  0  0  0  0
    1.1447    2.1449    0.2839 H   0  0  0  0  0  0  0  0  0  0  0  0
    2.3264   -2.0254   -0.2107 H   0  0  0  0  0  0  0  0  0  0  0  0
   -0.0695   -2.6972   -0.3031 H   0  0  0  0  0  0  0  0  0  0  0  0
  1  2  2  0
  2  3  1  0
  3  4  1  0
  4  5  2  0
  4  6  2  0
  4  7  1  0
  7  8  2  0
  8  9  1  0
  9 10  2  0
 10 11  1  0
 11 12  2  0
 10 13  1  0
 13 14  1  0
 13 15  2  0
  8  2  1  0
 12  7  1  0
  3 16  1  0
  9 17  1  0
 11 18  1  0
 12 19  1  0
M  CHG  2  13   1  14  -1
M  END
