
     RDKit          3D

 19 20  0  0  0  0  0  0  0  0999 V2000
    0.0214   -1.1458   -2.6150 O   0  0  0  0  0  0  0  0  0  0  0  0
    0.3698   -1.1332   -1.4546 C   0  0  0  0  0  0  0  0  0  0  0  0
    1.0334   -2.1993   -0.8185 N   0  0  0  0  0  0  0  0  0  0  0  0
    1.0355   -2.0877    0.8493 S   0  0  0  0  0  6  0  0  0  0  0  0
    0.0794   -3.0322    1.3697 O   0  0  0  0  0  0  0  0  0  0  0  0
    2.3911   -1.9551    1.3185 O   0  0  0  0  0  0  0  0  0  0  0  0
    0.3011   -0.5086    0.8373 C   0  0  0  0  0  0  0  0  0  0  0  0
    0.0469   -0.0956   -0.4645 C   0  0  0  0  0  0  0  0  0  0  0  0
   -0.5202    1.1456   -0.6684 C   0  0  0  0  0  0  0  0  0  0  0  0
   -0.8372    1.9673    0.4250 C   0  0  0  0  0  0  0  0  0  0  0  0
   -0.5673    1.5221    1.7310 C   0  0  0  0  0  0  0  0  0  0  0  0
    0.0154    0.2698    1.9486 C   0  0  0  0  0  0  0  0  0  0  0  0
   -0.7571    1.6352   -2.0036 N   0  0  0  0  0  4  0  0  0  0  0  0
    0.2417    1.8680   -2.6936 O   0  0  0  0  0  1  0  0  0  0  0  0
   -1.9348    1.8375   -2.3211 O   0  0  0  0  0  0  0  0  0  0  0  0
    0.9408   -3.1169   -1.2460 H   0  0  0  0  0  0  0  0  0  0  0  0
   -1.2847    2.9487    0.2719 H   0  0  0  0  0  0  0  0  0  0  0  0
   -0.8097    2.1611    2.5798 H   0  0  0  0  0  0  0  0  0  0  0  0
    0.2346   -0.0808    2.9541 H   0  0  0  0  0  0  0  0  0  0  0  0
  1  2  2  0
  2  3  1  0
  3  4  1  0
  4  5  2  0
  4  6  2  0
  4  7  1  0
  7  8  2  0
  8  9  1  0
  9 10  2  0
 10 11  1  0
 11 12  2  0
  9 13  1  0
 13 14  1  0
 13 15  2  0
  8  2  1  0
 12  7  1  0
  3 16  1  0
 10 17  1  0
 11 18  1  0
 12 19  1  0
M  CHG  2  13   1  14  -1
M  END
