
     RDKit          3D

 19 20  0  0  0  0  0  0  0  0999 V2000
    2.8761   -1.8142   -0.2996 O   0  0  0  0  0  0  0  0  0  0  0  0
    2.1336   -0.8539   -0.2941 C   0  0  0  0  0  0  0  0  0  0  0  0
    2.5647    0.4846   -0.3333 N   0  0  0  0  0  0  0  0  0  0  0  0
    1.3480    1.5732    0.0382 S   0  0  0  0  0  6  0  0  0  0  0  0
    1.5764    2.0333    1.3863 O   0  0  0  0  0  0  0  0  0  0  0  0
    1.1476    2.4549   -1.0867 O   0  0  0  0  0  0  0  0  0  0  0  0
    0.1010    0.3624    0.0333 C   0  0  0  0  0  0  0  0  0  0  0  0
    0.6675   -0.8952   -0.1647 C   0  0  0  0  0  0  0  0  0  0  0  0
   -0.1140   -2.0378   -0.1904 C   0  0  0  0  0  0  0  0  0  0  0  0
   -1.4884   -1.8840   -0.0167 C   0  0  0  0  0  0  0  0  0  0  0  0
   -2.0495   -0.6029    0.1562 C   0  0  0  0  0  0  0  0  0  0  0  0
   -1.2661    0.5616    0.1272 C   0  0  0  0  0  0  0  0  0  0  0  0
   -1.8590    1.7931    0.4020 N   0  0  0  0  0  0  0  0  0  0  0  0
    3.4999    0.6685    0.0168 H   0  0  0  0  0  0  0  0  0  0  0  0
    0.3298   -3.0203   -0.3242 H   0  0  0  0  0  0  0  0  0  0  0  0
   -2.1357   -2.7590   -0.0049 H   0  0  0  0  0  0  0  0  0  0  0  0
   -3.1250   -0.5277    0.3114 H   0  0  0  0  0  0  0  0  0  0  0  0
   -1.3571    2.6126    0.0622 H   0  0  0  0  0  0  0  0  0  0  0  0
   -2.8496    1.8509    0.1809 H   0  0  0  0  0  0  0  0  0  0  0  0
  1  2  2  0
  2  3  1  0
  3  4  1  0
  4  5  2  0
  4  6  2  0
  4  7  1  0
  7  8  2  0
  8  9  1  0
  9 10  2  0
 10 11  1  0
 11 12  2  0
 12 13  1  0
  8  2  1  0
 12  7  1  0
  3 14  1  0
  9 15  1  0
 10 16  1  0
 11 17  1  0
 13 18  1  0
 13 19  1  0
M  END
