
     RDKit          3D

 20 21  0  0  0  0  0  0  0  0999 V2000
   -1.0133   -0.1358    2.4485 O   0  0  0  0  0  0  0  0  0  0  0  0
   -0.7860   -0.0338    1.2583 C   0  0  0  0  0  0  0  0  0  0  0  0
    0.5444   -0.1520    0.6318 C   0  0  0  0  0  0  0  0  0  0  0  0
    1.7422   -0.3959    1.2850 C   0  0  0  0  0  0  0  0  0  0  0  0
    2.9073   -0.4743    0.5137 C   0  0  0  0  0  0  0  0  0  0  0  0
    2.8604   -0.3099   -0.8840 C   0  0  0  0  0  0  0  0  0  0  0  0
    1.6488   -0.0644   -1.5339 C   0  0  0  0  0  0  0  0  0  0  0  0
    0.5137    0.0080   -0.7476 C   0  0  0  0  0  0  0  0  0  0  0  0
   -1.1108    0.3006   -1.2960 S   0  0  0  0  0  6  0  0  0  0  0  0
   -1.5558   -0.8437   -2.0550 O   0  0  0  0  0  0  0  0  0  0  0  0
   -1.2002    1.6603   -1.7723 O   0  0  0  0  0  0  0  0  0  0  0  0
   -1.7460    0.2157    0.2556 N   0  0  0  0  0  0  0  0  0  0  0  0
   -3.1736    0.3956    0.4582 C   0  0  0  0  0  0  0  0  0  0  0  0
    1.7755   -0.5223    2.3637 H   0  0  0  0  0  0  0  0  0  0  0  0
    3.8633   -0.6648    0.9990 H   0  0  0  0  0  0  0  0  0  0  0  0
    3.7807   -0.3753   -1.4625 H   0  0  0  0  0  0  0  0  0  0  0  0
    1.6013    0.0639   -2.6109 H   0  0  0  0  0  0  0  0  0  0  0  0
   -3.3525    1.2523    1.1143 H   0  0  0  0  0  0  0  0  0  0  0  0
   -3.6983    0.5765   -0.4845 H   0  0  0  0  0  0  0  0  0  0  0  0
   -3.6014   -0.5007    0.9165 H   0  0  0  0  0  0  0  0  0  0  0  0
  1  2  2  0
  2  3  1  0
  3  4  2  0
  4  5  1  0
  5  6  2  0
  6  7  1  0
  7  8  2  0
  8  9  1  0
  9 10  2  0
  9 11  2  0
  9 12  1  0
 12 13  1  0
 12  2  1  0
  8  3  1  0
  4 14  1  0
  5 15  1  0
  6 16  1  0
  7 17  1  0
 13 18  1  0
 13 19  1  0
 13 20  1  0
M  END
