
     RDKit          3D

 23 24  0  0  0  0  0  0  0  0999 V2000
   -3.3981    0.3860   -0.4044 C   0  0  0  0  0  0  0  0  0  0  0  0
   -2.6010   -0.8434   -0.0097 C   0  0  0  0  0  0  0  0  0  0  0  0
   -1.1803   -0.5182    0.0819 N   0  0  0  0  0  0  0  0  0  0  0  0
   -0.2775   -0.3749   -0.9941 C   0  0  0  0  0  0  0  0  0  0  0  0
   -0.5500   -0.5024   -2.1724 O   0  0  0  0  0  0  0  0  0  0  0  0
    1.0578   -0.0436   -0.4623 C   0  0  0  0  0  0  0  0  0  0  0  0
    1.0892    0.0359    0.9238 C   0  0  0  0  0  0  0  0  0  0  0  0
   -0.4826   -0.2882    1.5938 S   0  0  0  0  0  6  0  0  0  0  0  0
   -0.4344   -1.5505    2.2923 O   0  0  0  0  0  0  0  0  0  0  0  0
   -0.9961    0.9285    2.1764 O   0  0  0  0  0  0  0  0  0  0  0  0
    2.2400    0.3356    1.6294 C   0  0  0  0  0  0  0  0  0  0  0  0
    3.4020    0.5621    0.8885 C   0  0  0  0  0  0  0  0  0  0  0  0
    3.3859    0.4847   -0.5173 C   0  0  0  0  0  0  0  0  0  0  0  0
    2.2062    0.1795   -1.2056 C   0  0  0  0  0  0  0  0  0  0  0  0
   -3.0749    0.7738   -1.3760 H   0  0  0  0  0  0  0  0  0  0  0  0
   -4.4629    0.1426   -0.4730 H   0  0  0  0  0  0  0  0  0  0  0  0
   -3.2781    1.1876    0.3316 H   0  0  0  0  0  0  0  0  0  0  0  0
   -2.7432   -1.6401   -0.7481 H   0  0  0  0  0  0  0  0  0  0  0  0
   -2.9703   -1.2333    0.9451 H   0  0  0  0  0  0  0  0  0  0  0  0
    2.2412    0.3926    2.7136 H   0  0  0  0  0  0  0  0  0  0  0  0
    4.3323    0.8012    1.4015 H   0  0  0  0  0  0  0  0  0  0  0  0
    4.3039    0.6650   -1.0744 H   0  0  0  0  0  0  0  0  0  0  0  0
    2.1908    0.1194   -2.2904 H   0  0  0  0  0  0  0  0  0  0  0  0
  1  2  1  0
  2  3  1  0
  3  4  1  0
  4  5  2  0
  4  6  1  0
  6  7  2  0
  7  8  1  0
  8  9  2  0
  8 10  2  0
  7 11  1  0
 11 12  2  0
 12 13  1  0
 13 14  2  0
  8  3  1  0
 14  6  1  0
  1 15  1  0
  1 16  1  0
  1 17  1  0
  2 18  1  0
  2 19  1  0
 11 20  1  0
 12 21  1  0
 13 22  1  0
 14 23  1  0
M  END
