
     RDKit          3D

 22 23  0  0  0  0  0  0  0  0999 V2000
   -4.8144    0.3524   -0.2196 O   0  0  0  0  0  1  0  0  0  0  0  0
   -3.8106    1.0769   -0.1977 N   0  0  0  0  0  4  0  0  0  0  0  0
   -3.8298    2.3142   -0.2355 O   0  0  0  0  0  0  0  0  0  0  0  0
   -2.4969    0.4200   -0.1210 C   0  0  0  0  0  0  0  0  0  0  0  0
   -2.4281   -0.9935   -0.0757 C   0  0  0  0  0  0  0  0  0  0  0  0
   -1.1871   -1.6417   -0.0025 C   0  0  0  0  0  0  0  0  0  0  0  0
   -0.0406   -0.8610    0.0240 C   0  0  0  0  0  0  0  0  0  0  0  0
   -0.1292    0.5259   -0.0213 C   0  0  0  0  0  0  0  0  0  0  0  0
   -1.3343    1.2038   -0.0939 C   0  0  0  0  0  0  0  0  0  0  0  0
    1.4572    1.2429    0.0261 S   0  0  0  0  0  6  0  0  0  0  0  0
    1.6059    1.9264    1.2876 O   0  0  0  0  0  0  0  0  0  0  0  0
    1.7163    1.8504   -1.2562 O   0  0  0  0  0  0  0  0  0  0  0  0
    2.2254   -0.2464    0.1040 N   0  0  0  0  0  0  0  0  0  0  0  0
    1.3499   -1.3510    0.0990 C   0  0  0  0  0  0  0  0  0  0  0  0
    1.6768   -2.5206    0.1481 O   0  0  0  0  0  0  0  0  0  0  0  0
    3.6771   -0.3022    0.1687 C   0  0  0  0  0  0  0  0  0  0  0  0
   -3.3353   -1.5977   -0.0971 H   0  0  0  0  0  0  0  0  0  0  0  0
   -1.1245   -2.7270    0.0327 H   0  0  0  0  0  0  0  0  0  0  0  0
   -1.3591    2.2899   -0.1274 H   0  0  0  0  0  0  0  0  0  0  0  0
    4.1229    0.6968    0.1582 H   0  0  0  0  0  0  0  0  0  0  0  0
    4.0678   -0.8558   -0.6899 H   0  0  0  0  0  0  0  0  0  0  0  0
    3.9905   -0.8027    1.0894 H   0  0  0  0  0  0  0  0  0  0  0  0
  1  2  1  0
  2  3  2  0
  2  4  1  0
  4  5  2  0
  5  6  1  0
  6  7  2  0
  7  8  1  0
  8  9  2  0
  8 10  1  0
 10 11  2  0
 10 12  2  0
 10 13  1  0
 13 14  1  0
 14 15  2  0
 13 16  1  0
  9  4  1  0
 14  7  1  0
  5 17  1  0
  6 18  1  0
  9 19  1  0
 16 20  1  0
 16 21  1  0
 16 22  1  0
M  CHG  2   1  -1   2   1
M  END
