
     RDKit          3D

 25 26  0  0  0  0  0  0  0  0999 V2000
    3.6285   -0.3724    0.5666 C   0  0  0  0  0  0  0  0  0  0  0  0
    2.8814    0.4524   -0.4651 C   0  0  0  0  0  0  0  0  0  0  0  0
    1.4435    0.3950   -0.2062 N   0  0  0  0  0  0  0  0  0  0  0  0
    0.7345    1.1385    0.7581 C   0  0  0  0  0  0  0  0  0  0  0  0
    1.2160    1.9120    1.5624 O   0  0  0  0  0  0  0  0  0  0  0  0
   -0.6982    0.8035    0.6566 C   0  0  0  0  0  0  0  0  0  0  0  0
   -0.9818   -0.0863   -0.3727 C   0  0  0  0  0  0  0  0  0  0  0  0
    0.4599   -0.4955   -1.2412 S   0  0  0  0  0  6  0  0  0  0  0  0
    0.4481    0.1696   -2.5203 O   0  0  0  0  0  0  0  0  0  0  0  0
    0.7249   -1.8993   -1.0447 O   0  0  0  0  0  0  0  0  0  0  0  0
   -2.2493   -0.6004   -0.5392 C   0  0  0  0  0  0  0  0  0  0  0  0
   -3.2731   -0.1731    0.3216 C   0  0  0  0  0  0  0  0  0  0  0  0
   -2.9936    0.7563    1.3387 C   0  0  0  0  0  0  0  0  0  0  0  0
   -1.6954    1.2463    1.5170 C   0  0  0  0  0  0  0  0  0  0  0  0
   -2.5435   -1.5913   -1.5570 N   0  0  0  0  0  4  0  0  0  0  0  0
   -3.3075   -2.5109   -1.2386 O   0  0  0  0  0  1  0  0  0  0  0  0
   -2.0410   -1.4294   -2.6719 O   0  0  0  0  0  0  0  0  0  0  0  0
    3.3098   -1.4197    0.5386 H   0  0  0  0  0  0  0  0  0  0  0  0
    4.7052   -0.3374    0.3744 H   0  0  0  0  0  0  0  0  0  0  0  0
    3.4514    0.0036    1.5796 H   0  0  0  0  0  0  0  0  0  0  0  0
    3.1109    0.0793   -1.4691 H   0  0  0  0  0  0  0  0  0  0  0  0
    3.2154    1.4952   -0.4331 H   0  0  0  0  0  0  0  0  0  0  0  0
   -4.2871   -0.5593    0.2172 H   0  0  0  0  0  0  0  0  0  0  0  0
   -3.7911    1.0823    2.0058 H   0  0  0  0  0  0  0  0  0  0  0  0
   -1.4678    1.9413    2.3225 H   0  0  0  0  0  0  0  0  0  0  0  0
  1  2  1  0
  2  3  1  0
  3  4  1  0
  4  5  2  0
  4  6  1  0
  6  7  2  0
  7  8  1  0
  8  9  2  0
  8 10  2  0
  7 11  1  0
 11 12  2  0
 12 13  1  0
 13 14  2  0
 11 15  1  0
 15 16  1  0
 15 17  2  0
  8  3  1  0
 14  6  1  0
  1 18  1  0
  1 19  1  0
  1 20  1  0
  2 21  1  0
  2 22  1  0
 12 23  1  0
 13 24  1  0
 14 25  1  0
M  CHG  2  15   1  16  -1
M  END
