
     RDKit          3D

 25 26  0  0  0  0  0  0  0  0999 V2000
   -3.8294    0.7065   -0.0796 C   0  0  0  0  0  0  0  0  0  0  0  0
   -3.0876   -0.3732    0.6862 C   0  0  0  0  0  0  0  0  0  0  0  0
   -1.6459   -0.2321    0.4930 N   0  0  0  0  0  0  0  0  0  0  0  0
   -0.7986    0.6946    1.1363 C   0  0  0  0  0  0  0  0  0  0  0  0
   -1.1390    1.5242    1.9570 O   0  0  0  0  0  0  0  0  0  0  0  0
    0.5824    0.4999    0.6531 C   0  0  0  0  0  0  0  0  0  0  0  0
    0.6952   -0.5217   -0.2829 C   0  0  0  0  0  0  0  0  0  0  0  0
   -0.8569   -1.2518   -0.5838 S   0  0  0  0  0  6  0  0  0  0  0  0
   -0.8350   -2.5912   -0.0490 O   0  0  0  0  0  0  0  0  0  0  0  0
   -1.2529   -0.9284   -1.9325 O   0  0  0  0  0  0  0  0  0  0  0  0
    1.8970   -0.8778   -0.8713 C   0  0  0  0  0  0  0  0  0  0  0  0
    3.0302   -0.1510   -0.4784 C   0  0  0  0  0  0  0  0  0  0  0  0
    2.9365    0.8927    0.4735 C   0  0  0  0  0  0  0  0  0  0  0  0
    1.6998    1.2223    1.0458 C   0  0  0  0  0  0  0  0  0  0  0  0
    4.3386   -0.4783   -1.0649 N   0  0  0  0  0  4  0  0  0  0  0  0
    4.3802   -1.3974   -1.8933 O   0  0  0  0  0  1  0  0  0  0  0  0
    5.3161    0.1852   -0.6941 O   0  0  0  0  0  0  0  0  0  0  0  0
   -3.5368    1.7057    0.2591 H   0  0  0  0  0  0  0  0  0  0  0  0
   -4.9091    0.6013    0.0648 H   0  0  0  0  0  0  0  0  0  0  0  0
   -3.6210    0.6435   -1.1526 H   0  0  0  0  0  0  0  0  0  0  0  0
   -3.4263   -1.3613    0.3559 H   0  0  0  0  0  0  0  0  0  0  0  0
   -3.3178   -0.3056    1.7552 H   0  0  0  0  0  0  0  0  0  0  0  0
    1.9413   -1.6834   -1.5996 H   0  0  0  0  0  0  0  0  0  0  0  0
    3.8208    1.4544    0.7753 H   0  0  0  0  0  0  0  0  0  0  0  0
    1.6181    2.0228    1.7777 H   0  0  0  0  0  0  0  0  0  0  0  0
  1  2  1  0
  2  3  1  0
  3  4  1  0
  4  5  2  0
  4  6  1  0
  6  7  2  0
  7  8  1  0
  8  9  2  0
  8 10  2  0
  7 11  1  0
 11 12  2  0
 12 13  1  0
 13 14  2  0
 12 15  1  0
 15 16  1  0
 15 17  2  0
  8  3  1  0
 14  6  1  0
  1 18  1  0
  1 19  1  0
  1 20  1  0
  2 21  1  0
  2 22  1  0
 11 23  1  0
 13 24  1  0
 14 25  1  0
M  CHG  2  15   1  16  -1
M  END
