
     RDKit          3D

 66 68  0  0  0  0  0  0  0  0999 V2000
    1.2670   -0.2421    2.8518 O   0  0  0  0  0  0  0  0  0  0  0  0
    0.1504   -0.5785    2.0162 C   0  0  0  0  0  0  0  0  0  0  0  0
    0.2935    0.1042    0.6470 C   0  0  0  0  0  0  0  0  0  0  0  0
    1.4478   -0.4513   -0.0110 O   0  0  0  0  0  0  0  0  0  0  0  0
    1.6871    0.1967   -1.2614 C   0  0  0  0  0  0  0  0  0  0  0  0
    2.8947   -0.2919   -1.8380 O   0  0  0  0  0  0  0  0  0  0  0  0
    4.0842    0.1256   -1.1337 C   0  0  0  0  0  0  0  0  0  0  0  0
    5.0063    0.7618   -2.2033 C   0  0  0  0  0  0  0  0  0  0  0  0
    5.3231   -0.1528   -3.2602 O   0  0  0  0  0  0  0  0  0  0  0  0
    3.8579    1.1198   -0.1189 O   0  0  0  0  0  0  0  0  0  0  0  0
    4.4929    0.6791    1.1036 C   0  0  0  0  0  0  0  0  0  0  0  0
    5.4553   -0.4579    0.7272 C   0  0  0  0  0  0  0  0  0  0  0  0
    4.7214   -1.0996   -0.4370 C   0  0  0  0  0  0  0  0  0  0  0  0
    3.7475   -2.0197    0.0848 O   0  0  0  0  0  0  0  0  0  0  0  0
    6.7407    0.0301    0.3207 O   0  0  0  0  0  0  0  0  0  0  0  0
    5.1345    1.8753    1.8102 C   0  0  0  0  0  0  0  0  0  0  0  0
    6.1179    2.5163    0.9986 O   0  0  0  0  0  0  0  0  0  0  0  0
    0.5434   -0.1657   -2.2167 C   0  0  0  0  0  0  0  0  0  0  0  0
   -0.7759    0.3501   -1.6492 C   0  0  0  0  0  0  0  0  0  0  0  0
   -0.9946   -0.0942   -0.1854 C   0  0  0  0  0  0  0  0  0  0  0  0
   -2.0137    0.7291    0.4077 O   0  0  0  0  0  0  0  0  0  0  0  0
   -3.3453    0.2522    0.1894 C   0  0  0  0  0  0  0  0  0  0  0  0
   -3.6531   -0.6941    1.2128 O   0  0  0  0  0  0  0  0  0  0  0  0
   -5.0111   -1.1869    1.1779 C   0  0  0  0  0  0  0  0  0  0  0  0
   -5.2110   -2.1465   -0.0110 C   0  0  0  0  0  0  0  0  0  0  0  0
   -6.2022   -3.1246    0.2746 O   0  0  0  0  0  0  0  0  0  0  0  0
   -6.0253   -0.0197    1.2499 C   0  0  0  0  0  0  0  0  0  0  0  0
   -5.7218    1.0507    0.1913 C   0  0  0  0  0  0  0  0  0  0  0  0
   -4.2646    1.4853    0.2734 C   0  0  0  0  0  0  0  0  0  0  0  0
   -4.0805    2.1889    1.5229 O   0  0  0  0  0  0  0  0  0  0  0  0
   -6.5861    2.1755    0.4268 O   0  0  0  0  0  0  0  0  0  0  0  0
   -7.3832   -0.4389    1.1111 O   0  0  0  0  0  0  0  0  0  0  0  0
   -1.8471   -0.1343   -2.4802 O   0  0  0  0  0  0  0  0  0  0  0  0
    0.4244   -1.5967   -2.3670 O   0  0  0  0  0  0  0  0  0  0  0  0
    1.1985   -0.8025    3.6454 H   0  0  0  0  0  0  0  0  0  0  0  0
   -0.7598   -0.2553    2.5318 H   0  0  0  0  0  0  0  0  0  0  0  0
    0.1388   -1.6700    1.9012 H   0  0  0  0  0  0  0  0  0  0  0  0
    0.4828    1.1725    0.8224 H   0  0  0  0  0  0  0  0  0  0  0  0
    1.7387    1.2871   -1.1493 H   0  0  0  0  0  0  0  0  0  0  0  0
    4.4884    1.6194   -2.6611 H   0  0  0  0  0  0  0  0  0  0  0  0
    5.9421    1.1468   -1.7838 H   0  0  0  0  0  0  0  0  0  0  0  0
    4.4708   -0.5346   -3.5515 H   0  0  0  0  0  0  0  0  0  0  0  0
    3.6947    0.2802    1.7429 H   0  0  0  0  0  0  0  0  0  0  0  0
    5.6067   -1.1367    1.5749 H   0  0  0  0  0  0  0  0  0  0  0  0
    5.3743   -1.6665   -1.1076 H   0  0  0  0  0  0  0  0  0  0  0  0
    2.9133   -1.5229    0.2400 H   0  0  0  0  0  0  0  0  0  0  0  0
    7.2787   -0.7457    0.0678 H   0  0  0  0  0  0  0  0  0  0  0  0
    5.6097    1.5661    2.7481 H   0  0  0  0  0  0  0  0  0  0  0  0
    4.3716    2.6262    2.0341 H   0  0  0  0  0  0  0  0  0  0  0  0
    6.7155    1.8070    0.6755 H   0  0  0  0  0  0  0  0  0  0  0  0
    0.7240    0.2305   -3.2209 H   0  0  0  0  0  0  0  0  0  0  0  0
   -0.8058    1.4429   -1.7059 H   0  0  0  0  0  0  0  0  0  0  0  0
   -1.2969   -1.1494   -0.1554 H   0  0  0  0  0  0  0  0  0  0  0  0
   -3.4507   -0.2206   -0.7906 H   0  0  0  0  0  0  0  0  0  0  0  0
   -5.1460   -1.7795    2.0935 H   0  0  0  0  0  0  0  0  0  0  0  0
   -5.5056   -1.6057   -0.9146 H   0  0  0  0  0  0  0  0  0  0  0  0
   -4.2784   -2.6762   -0.2324 H   0  0  0  0  0  0  0  0  0  0  0  0
   -6.3879   -3.6065   -0.5480 H   0  0  0  0  0  0  0  0  0  0  0  0
   -5.9507    0.4503    2.2417 H   0  0  0  0  0  0  0  0  0  0  0  0
   -5.9614    0.6805   -0.8104 H   0  0  0  0  0  0  0  0  0  0  0  0
   -4.0275    2.2113   -0.5111 H   0  0  0  0  0  0  0  0  0  0  0  0
   -3.1376    2.0514    1.7547 H   0  0  0  0  0  0  0  0  0  0  0  0
   -6.1553    2.6771    1.1506 H   0  0  0  0  0  0  0  0  0  0  0  0
   -7.8979    0.3788    0.9438 H   0  0  0  0  0  0  0  0  0  0  0  0
   -1.6024   -1.0638   -2.6840 H   0  0  0  0  0  0  0  0  0  0  0  0
    1.3411   -1.9373   -2.3872 H   0  0  0  0  0  0  0  0  0  0  0  0
  1  2  1  0
  2  3  1  0
  3  4  1  0
  4  5  1  0
  5  6  1  0
  6  7  1  0
  7  8  1  0
  8  9  1  0
  7 10  1  0
 10 11  1  0
 11 12  1  0
 12 13  1  0
 13 14  1  0
 12 15  1  0
 11 16  1  0
 16 17  1  0
  5 18  1  0
 18 19  1  0
 19 20  1  0
 20 21  1  0
 21 22  1  0
 22 23  1  0
 23 24  1  0
 24 25  1  0
 25 26  1  0
 24 27  1  0
 27 28  1  0
 28 29  1  0
 29 30  1  0
 28 31  1  0
 27 32  1  0
 19 33  1  0
 18 34  1  0
 20  3  1  0
 29 22  1  0
 13  7  1  0
  1 35  1  0
  2 36  1  0
  2 37  1  0
  3 38  1  0
  5 39  1  0
  8 40  1  0
  8 41  1  0
  9 42  1  0
 11 43  1  0
 12 44  1  0
 13 45  1  0
 14 46  1  0
 15 47  1  0
 16 48  1  0
 16 49  1  0
 17 50  1  0
 18 51  1  0
 19 52  1  0
 20 53  1  0
 22 54  1  0
 24 55  1  0
 25 56  1  0
 25 57  1  0
 26 58  1  0
 27 59  1  0
 28 60  1  0
 29 61  1  0
 30 62  1  0
 31 63  1  0
 32 64  1  0
 33 65  1  0
 34 66  1  0
M  END
