
     RDKit          3D

 25 26  0  0  0  0  0  0  0  0999 V2000
   -3.7952    0.2861    0.5559 C   0  0  0  0  0  0  0  0  0  0  0  0
   -3.0837   -0.3191   -0.6400 C   0  0  0  0  0  0  0  0  0  0  0  0
   -1.6362   -0.2778   -0.4428 N   0  0  0  0  0  0  0  0  0  0  0  0
   -0.7971    0.8437   -0.6116 C   0  0  0  0  0  0  0  0  0  0  0  0
   -1.1507    1.9562   -0.9502 O   0  0  0  0  0  0  0  0  0  0  0  0
    0.5943    0.4567   -0.3104 C   0  0  0  0  0  0  0  0  0  0  0  0
    0.7213   -0.8804    0.0485 C   0  0  0  0  0  0  0  0  0  0  0  0
   -0.8294   -1.6756    0.0235 S   0  0  0  0  0  6  0  0  0  0  0  0
   -0.8352   -2.6200   -1.0672 O   0  0  0  0  0  0  0  0  0  0  0  0
   -1.1886   -2.0098    1.3800 O   0  0  0  0  0  0  0  0  0  0  0  0
    1.9362   -1.4580    0.3737 C   0  0  0  0  0  0  0  0  0  0  0  0
    3.0687   -0.6383    0.3309 C   0  0  0  0  0  0  0  0  0  0  0  0
    2.9506    0.7248   -0.0337 C   0  0  0  0  0  0  0  0  0  0  0  0
    1.7046    1.2873   -0.3594 C   0  0  0  0  0  0  0  0  0  0  0  0
    4.1549    1.5676   -0.0719 N   0  0  0  0  0  4  0  0  0  0  0  0
    4.0130    2.7544   -0.3942 O   0  0  0  0  0  1  0  0  0  0  0  0
    5.2355    1.0385    0.2205 O   0  0  0  0  0  0  0  0  0  0  0  0
   -3.5019    1.3303    0.7057 H   0  0  0  0  0  0  0  0  0  0  0  0
   -4.8791    0.2554    0.4086 H   0  0  0  0  0  0  0  0  0  0  0  0
   -3.5599   -0.2618    1.4741 H   0  0  0  0  0  0  0  0  0  0  0  0
   -3.4233   -1.3496   -0.7909 H   0  0  0  0  0  0  0  0  0  0  0  0
   -3.3405    0.2310   -1.5520 H   0  0  0  0  0  0  0  0  0  0  0  0
    2.0079   -2.5063    0.6512 H   0  0  0  0  0  0  0  0  0  0  0  0
    4.0388   -1.0675    0.5823 H   0  0  0  0  0  0  0  0  0  0  0  0
    1.5949    2.3322   -0.6414 H   0  0  0  0  0  0  0  0  0  0  0  0
  1  2  1  0
  2  3  1  0
  3  4  1  0
  4  5  2  0
  4  6  1  0
  6  7  2  0
  7  8  1  0
  8  9  2  0
  8 10  2  0
  7 11  1  0
 11 12  2  0
 12 13  1  0
 13 14  2  0
 13 15  1  0
 15 16  1  0
 15 17  2  0
  8  3  1  0
 14  6  1  0
  1 18  1  0
  1 19  1  0
  1 20  1  0
  2 21  1  0
  2 22  1  0
 11 23  1  0
 12 24  1  0
 14 25  1  0
M  CHG  2  15   1  16  -1
M  END
