
     RDKit          3D

 17 18  0  0  0  0  0  0  0  0999 V2000
    3.2877   -1.5213    0.2148 F   0  0  0  0  0  0  0  0  0  0  0  0
    2.1727   -0.7853    0.1281 C   0  0  0  0  0  0  0  0  0  0  0  0
    2.2803    0.6149    0.1007 C   0  0  0  0  0  0  0  0  0  0  0  0
    1.1343    1.4131    0.0091 C   0  0  0  0  0  0  0  0  0  0  0  0
   -0.0944    0.7741   -0.0584 C   0  0  0  0  0  0  0  0  0  0  0  0
   -0.1744   -0.6135   -0.0175 C   0  0  0  0  0  0  0  0  0  0  0  0
    0.9396   -1.4258    0.0685 C   0  0  0  0  0  0  0  0  0  0  0  0
   -1.8292   -1.1332   -0.1291 S   0  0  0  0  0  6  0  0  0  0  0  0
   -2.0102   -1.8246   -1.3806 O   0  0  0  0  0  0  0  0  0  0  0  0
   -2.2384   -1.6512    1.1525 O   0  0  0  0  0  0  0  0  0  0  0  0
   -2.4105    0.4287   -0.2741 N   0  0  0  0  0  0  0  0  0  0  0  0
   -1.4188    1.4168   -0.1269 C   0  0  0  0  0  0  0  0  0  0  0  0
   -1.6410    2.6030    0.0006 O   0  0  0  0  0  0  0  0  0  0  0  0
    3.2663    1.0706    0.1534 H   0  0  0  0  0  0  0  0  0  0  0  0
    1.2054    2.4973   -0.0066 H   0  0  0  0  0  0  0  0  0  0  0  0
    0.8687   -2.5071    0.0873 H   0  0  0  0  0  0  0  0  0  0  0  0
   -3.3382    0.6435    0.0783 H   0  0  0  0  0  0  0  0  0  0  0  0
  1  2  1  0
  2  3  2  0
  3  4  1  0
  4  5  2  0
  5  6  1  0
  6  7  2  0
  6  8  1  0
  8  9  2  0
  8 10  2  0
  8 11  1  0
 11 12  1  0
 12 13  2  0
  7  2  1  0
 12  5  1  0
  3 14  1  0
  4 15  1  0
  7 16  1  0
 11 17  1  0
M  END
