
     RDKit          3D

 17 18  0  0  0  0  0  0  0  0999 V2000
    3.9543   -1.7647    0.1007 I   0  0  0  0  0  0  0  0  0  0  0  0
    2.1748   -0.6931   -0.0133 C   0  0  0  0  0  0  0  0  0  0  0  0
    2.2061    0.6594   -0.4079 C   0  0  0  0  0  0  0  0  0  0  0  0
    1.0233    1.4053   -0.4913 C   0  0  0  0  0  0  0  0  0  0  0  0
   -0.1670    0.7736   -0.1696 C   0  0  0  0  0  0  0  0  0  0  0  0
   -0.1777   -0.5637    0.2054 C   0  0  0  0  0  0  0  0  0  0  0  0
    0.9717   -1.3265    0.3018 C   0  0  0  0  0  0  0  0  0  0  0  0
   -1.7986   -1.0851    0.5581 S   0  0  0  0  0  6  0  0  0  0  0  0
   -1.8912   -1.3793    1.9660 O   0  0  0  0  0  0  0  0  0  0  0  0
   -2.2364   -1.9754   -0.4881 O   0  0  0  0  0  0  0  0  0  0  0  0
   -2.4516    0.4274    0.2676 N   0  0  0  0  0  0  0  0  0  0  0  0
   -1.5174    1.3606   -0.2205 C   0  0  0  0  0  0  0  0  0  0  0  0
   -1.8044    2.4462   -0.6810 O   0  0  0  0  0  0  0  0  0  0  0  0
    3.1512    1.1409   -0.6545 H   0  0  0  0  0  0  0  0  0  0  0  0
    1.0392    2.4469   -0.8008 H   0  0  0  0  0  0  0  0  0  0  0  0
    0.9259   -2.3663    0.6107 H   0  0  0  0  0  0  0  0  0  0  0  0
   -3.4020    0.4940   -0.0833 H   0  0  0  0  0  0  0  0  0  0  0  0
  1  2  1  0
  2  3  2  0
  3  4  1  0
  4  5  2  0
  5  6  1  0
  6  7  2  0
  6  8  1  0
  8  9  2  0
  8 10  2  0
  8 11  1  0
 11 12  1  0
 12 13  2  0
  7  2  1  0
 12  5  1  0
  3 14  1  0
  4 15  1  0
  7 16  1  0
 11 17  1  0
M  END
