
     RDKit          3D

 19 20  0  0  0  0  0  0  0  0999 V2000
    3.2321   -0.1653   -0.4473 N   0  0  0  0  0  0  0  0  0  0  0  0
    1.8969    0.0794   -0.1140 C   0  0  0  0  0  0  0  0  0  0  0  0
    1.4862    1.3887    0.2183 C   0  0  0  0  0  0  0  0  0  0  0  0
    0.1382    1.7016    0.4400 C   0  0  0  0  0  0  0  0  0  0  0  0
   -0.7922    0.6899    0.2889 C   0  0  0  0  0  0  0  0  0  0  0  0
   -0.3904   -0.5787   -0.1006 C   0  0  0  0  0  0  0  0  0  0  0  0
    0.9337   -0.9114   -0.3222 C   0  0  0  0  0  0  0  0  0  0  0  0
   -1.7598   -1.6382   -0.2387 S   0  0  0  0  0  6  0  0  0  0  0  0
   -2.0007   -1.9155   -1.6331 O   0  0  0  0  0  0  0  0  0  0  0  0
   -1.6660   -2.6508    0.7834 O   0  0  0  0  0  0  0  0  0  0  0  0
   -2.8431   -0.4613    0.2545 N   0  0  0  0  0  0  0  0  0  0  0  0
   -2.2541    0.8067    0.4256 C   0  0  0  0  0  0  0  0  0  0  0  0
   -2.8753    1.8377    0.5816 O   0  0  0  0  0  0  0  0  0  0  0  0
    3.9002    0.4586   -0.0043 H   0  0  0  0  0  0  0  0  0  0  0  0
    3.5155   -1.1388   -0.3810 H   0  0  0  0  0  0  0  0  0  0  0  0
    2.2281    2.1810    0.3024 H   0  0  0  0  0  0  0  0  0  0  0  0
   -0.1659    2.7106    0.7032 H   0  0  0  0  0  0  0  0  0  0  0  0
    1.2069   -1.9104   -0.6468 H   0  0  0  0  0  0  0  0  0  0  0  0
   -3.7903   -0.4838   -0.1100 H   0  0  0  0  0  0  0  0  0  0  0  0
  1  2  1  0
  2  3  2  0
  3  4  1  0
  4  5  2  0
  5  6  1  0
  6  7  2  0
  6  8  1  0
  8  9  2  0
  8 10  2  0
  8 11  1  0
 11 12  1  0
 12 13  2  0
  7  2  1  0
 12  5  1  0
  1 14  1  0
  1 15  1  0
  3 16  1  0
  4 17  1  0
  7 18  1  0
 11 19  1  0
M  END
