
     RDKit          3D

 18 19  0  0  0  0  0  0  0  0999 V2000
    3.0420   -1.5441    0.2263 O   0  0  0  0  0  0  0  0  0  0  0  0
    1.9415   -0.7534    0.0782 C   0  0  0  0  0  0  0  0  0  0  0  0
    2.0584    0.5746   -0.3658 C   0  0  0  0  0  0  0  0  0  0  0  0
    0.9165    1.3720   -0.5105 C   0  0  0  0  0  0  0  0  0  0  0  0
   -0.3126    0.8116   -0.1983 C   0  0  0  0  0  0  0  0  0  0  0  0
   -0.4014   -0.5074    0.2275 C   0  0  0  0  0  0  0  0  0  0  0  0
    0.7062   -1.3168    0.3835 C   0  0  0  0  0  0  0  0  0  0  0  0
   -2.0533   -0.9351    0.5534 S   0  0  0  0  0  6  0  0  0  0  0  0
   -2.5140   -1.8408   -0.4699 O   0  0  0  0  0  0  0  0  0  0  0  0
   -2.2057   -1.1644    1.9684 O   0  0  0  0  0  0  0  0  0  0  0  0
   -2.6229    0.5957    0.1854 N   0  0  0  0  0  0  0  0  0  0  0  0
   -1.6298    1.4612   -0.3111 C   0  0  0  0  0  0  0  0  0  0  0  0
   -1.8489    2.5403   -0.8221 O   0  0  0  0  0  0  0  0  0  0  0  0
    3.8375   -1.0388   -0.0115 H   0  0  0  0  0  0  0  0  0  0  0  0
    3.0313    0.9976   -0.6036 H   0  0  0  0  0  0  0  0  0  0  0  0
    0.9901    2.3986   -0.8592 H   0  0  0  0  0  0  0  0  0  0  0  0
    0.6225   -2.3419    0.7287 H   0  0  0  0  0  0  0  0  0  0  0  0
   -3.5573    0.6912   -0.1995 H   0  0  0  0  0  0  0  0  0  0  0  0
  1  2  1  0
  2  3  2  0
  3  4  1  0
  4  5  2  0
  5  6  1  0
  6  7  2  0
  6  8  1  0
  8  9  2  0
  8 10  2  0
  8 11  1  0
 11 12  1  0
 12 13  2  0
  7  2  1  0
 12  5  1  0
  1 14  1  0
  3 15  1  0
  4 16  1  0
  7 17  1  0
 11 18  1  0
M  END
