
     RDKit          3D

 21 22  0  0  0  0  0  0  0  0999 V2000
   -3.3482    1.1842   -0.0946 C   0  0  0  0  0  0  0  0  0  0  0  0
   -2.8676   -0.1519    0.0010 O   0  0  0  0  0  0  0  0  0  0  0  0
   -1.5136   -0.3330   -0.0691 C   0  0  0  0  0  0  0  0  0  0  0  0
   -1.1041   -1.6814    0.0226 C   0  0  0  0  0  0  0  0  0  0  0  0
    0.2477   -2.0422   -0.0341 C   0  0  0  0  0  0  0  0  0  0  0  0
    1.1765   -1.0299   -0.1892 C   0  0  0  0  0  0  0  0  0  0  0  0
    0.7660    0.2938   -0.2656 C   0  0  0  0  0  0  0  0  0  0  0  0
   -0.5635    0.6783   -0.2169 C   0  0  0  0  0  0  0  0  0  0  0  0
    2.1360    1.3452   -0.4663 S   0  0  0  0  0  6  0  0  0  0  0  0
    2.0664    1.9472   -1.7743 O   0  0  0  0  0  0  0  0  0  0  0  0
    2.3354    2.0847    0.7554 O   0  0  0  0  0  0  0  0  0  0  0  0
    3.2278    0.0785   -0.4988 N   0  0  0  0  0  0  0  0  0  0  0  0
    2.6415   -1.1759   -0.2413 C   0  0  0  0  0  0  0  0  0  0  0  0
    3.2651   -2.1935   -0.0207 O   0  0  0  0  0  0  0  0  0  0  0  0
   -3.0876    1.6285   -1.0609 H   0  0  0  0  0  0  0  0  0  0  0  0
   -2.9784    1.7959    0.7349 H   0  0  0  0  0  0  0  0  0  0  0  0
   -4.4397    1.1526   -0.0252 H   0  0  0  0  0  0  0  0  0  0  0  0
   -1.8595   -2.4573    0.1415 H   0  0  0  0  0  0  0  0  0  0  0  0
    0.5535   -3.0816    0.0433 H   0  0  0  0  0  0  0  0  0  0  0  0
   -0.8222    1.7278   -0.2946 H   0  0  0  0  0  0  0  0  0  0  0  0
    4.1683    0.2299   -0.1481 H   0  0  0  0  0  0  0  0  0  0  0  0
  1  2  1  0
  2  3  1  0
  3  4  2  0
  4  5  1  0
  5  6  2  0
  6  7  1  0
  7  8  2  0
  7  9  1  0
  9 10  2  0
  9 11  2  0
  9 12  1  0
 12 13  1  0
 13 14  2  0
  8  3  1  0
 13  6  1  0
  1 15  1  0
  1 16  1  0
  1 17  1  0
  4 18  1  0
  5 19  1  0
  8 20  1  0
 12 21  1  0
M  END
