
     RDKit          3D

 24 25  0  0  0  0  0  0  0  0999 V2000
    4.2605    0.1652    0.6714 C   0  0  0  0  0  0  0  0  0  0  0  0
    2.7867    0.4980    0.5250 C   0  0  0  0  0  0  0  0  0  0  0  0
    2.1011   -0.6958    0.1474 O   0  0  0  0  0  0  0  0  0  0  0  0
    0.7492   -0.6095   -0.0418 C   0  0  0  0  0  0  0  0  0  0  0  0
    0.1396   -1.8250   -0.4225 C   0  0  0  0  0  0  0  0  0  0  0  0
   -1.2378   -1.9116   -0.6589 C   0  0  0  0  0  0  0  0  0  0  0  0
   -1.9881   -0.7596   -0.5120 C   0  0  0  0  0  0  0  0  0  0  0  0
   -1.3825    0.4279   -0.1250 C   0  0  0  0  0  0  0  0  0  0  0  0
   -0.0227    0.5428    0.1107 C   0  0  0  0  0  0  0  0  0  0  0  0
   -2.5566    1.7065   -0.0287 S   0  0  0  0  0  6  0  0  0  0  0  0
   -2.7671    2.0386    1.3587 O   0  0  0  0  0  0  0  0  0  0  0  0
   -2.2686    2.6743   -1.0575 O   0  0  0  0  0  0  0  0  0  0  0  0
   -3.8133    0.7237   -0.5311 N   0  0  0  0  0  0  0  0  0  0  0  0
   -3.4459   -0.6280   -0.6780 C   0  0  0  0  0  0  0  0  0  0  0  0
   -4.2308   -1.5399   -0.8373 O   0  0  0  0  0  0  0  0  0  0  0  0
    4.8333    1.0505    0.9613 H   0  0  0  0  0  0  0  0  0  0  0  0
    4.6631   -0.2241   -0.2697 H   0  0  0  0  0  0  0  0  0  0  0  0
    4.4067   -0.6138    1.4270 H   0  0  0  0  0  0  0  0  0  0  0  0
    2.6675    1.2654   -0.2485 H   0  0  0  0  0  0  0  0  0  0  0  0
    2.4056    0.8673    1.4841 H   0  0  0  0  0  0  0  0  0  0  0  0
    0.7576   -2.7154   -0.5330 H   0  0  0  0  0  0  0  0  0  0  0  0
   -1.6987   -2.8524   -0.9456 H   0  0  0  0  0  0  0  0  0  0  0  0
    0.3931    1.5013    0.3982 H   0  0  0  0  0  0  0  0  0  0  0  0
   -4.7519    0.9136   -0.1943 H   0  0  0  0  0  0  0  0  0  0  0  0
  1  2  1  0
  2  3  1  0
  3  4  1  0
  4  5  2  0
  5  6  1  0
  6  7  2  0
  7  8  1  0
  8  9  2  0
  8 10  1  0
 10 11  2  0
 10 12  2  0
 10 13  1  0
 13 14  1  0
 14 15  2  0
  9  4  1  0
 14  7  1  0
  1 16  1  0
  1 17  1  0
  1 18  1  0
  2 19  1  0
  2 20  1  0
  5 21  1  0
  6 22  1  0
  9 23  1  0
 13 24  1  0
M  END
