
     RDKit          3D

 17 18  0  0  0  0  0  0  0  0999 V2000
    3.8364    1.1613   -0.4691 Cl  0  0  0  0  0  0  0  0  0  0  0  0
    2.2667    0.4865   -0.2627 C   0  0  0  0  0  0  0  0  0  0  0  0
    2.1167   -0.9137   -0.2324 C   0  0  0  0  0  0  0  0  0  0  0  0
    0.8535   -1.4904   -0.0704 C   0  0  0  0  0  0  0  0  0  0  0  0
   -0.2204   -0.6287    0.0544 C   0  0  0  0  0  0  0  0  0  0  0  0
   -0.0786    0.7533    0.0376 C   0  0  0  0  0  0  0  0  0  0  0  0
    1.1665    1.3373   -0.1303 C   0  0  0  0  0  0  0  0  0  0  0  0
   -1.3661    1.4565    0.1641 C   0  0  0  0  0  0  0  0  0  0  0  0
   -1.5438    2.6464    0.0052 O   0  0  0  0  0  0  0  0  0  0  0  0
   -2.3890    0.5217    0.4110 N   0  0  0  0  0  0  0  0  0  0  0  0
   -1.8882   -1.0696    0.2891 S   0  0  0  0  0  6  0  0  0  0  0  0
   -2.4002   -1.6131   -0.9442 O   0  0  0  0  0  0  0  0  0  0  0  0
   -2.0177   -1.7084    1.5745 O   0  0  0  0  0  0  0  0  0  0  0  0
    2.9902   -1.5556   -0.3357 H   0  0  0  0  0  0  0  0  0  0  0  0
    0.7237   -2.5682   -0.0420 H   0  0  0  0  0  0  0  0  0  0  0  0
    1.2773    2.4174   -0.1592 H   0  0  0  0  0  0  0  0  0  0  0  0
   -3.3271    0.7673    0.1100 H   0  0  0  0  0  0  0  0  0  0  0  0
  1  2  1  0
  2  3  2  0
  3  4  1  0
  4  5  2  0
  5  6  1  0
  6  7  2  0
  6  8  1  0
  8  9  2  0
  8 10  1  0
 10 11  1  0
 11 12  2  0
 11 13  2  0
  7  2  1  0
 11  5  1  0
  3 14  1  0
  4 15  1  0
  7 16  1  0
 10 17  1  0
M  END
