
     RDKit          3D

 19 20  0  0  0  0  0  0  0  0999 V2000
    3.1988   -0.7609    0.3231 N   0  0  0  0  0  0  0  0  0  0  0  0
    1.9075   -0.2696    0.1067 C   0  0  0  0  0  0  0  0  0  0  0  0
    1.6475    1.1090    0.2667 C   0  0  0  0  0  0  0  0  0  0  0  0
    0.3490    1.6228    0.1861 C   0  0  0  0  0  0  0  0  0  0  0  0
   -0.6723    0.7173   -0.0161 C   0  0  0  0  0  0  0  0  0  0  0  0
   -0.4458   -0.6456   -0.1339 C   0  0  0  0  0  0  0  0  0  0  0  0
    0.8382   -1.1610   -0.0458 C   0  0  0  0  0  0  0  0  0  0  0  0
   -1.6911   -1.4173   -0.2798 C   0  0  0  0  0  0  0  0  0  0  0  0
   -1.7917   -2.6257   -0.2262 O   0  0  0  0  0  0  0  0  0  0  0  0
   -2.7798   -0.5323   -0.4043 N   0  0  0  0  0  0  0  0  0  0  0  0
   -2.3686    1.0710   -0.1574 S   0  0  0  0  0  6  0  0  0  0  0  0
   -2.8724    1.4722    1.1328 O   0  0  0  0  0  0  0  0  0  0  0  0
   -2.5873    1.8079   -1.3771 O   0  0  0  0  0  0  0  0  0  0  0  0
    3.3811   -1.6727   -0.0862 H   0  0  0  0  0  0  0  0  0  0  0  0
    3.9424   -0.0971    0.1270 H   0  0  0  0  0  0  0  0  0  0  0  0
    2.4715    1.7938    0.4603 H   0  0  0  0  0  0  0  0  0  0  0  0
    0.1549    2.6853    0.2933 H   0  0  0  0  0  0  0  0  0  0  0  0
    1.0010   -2.2340   -0.0896 H   0  0  0  0  0  0  0  0  0  0  0  0
   -3.6828   -0.8631   -0.0795 H   0  0  0  0  0  0  0  0  0  0  0  0
  1  2  1  0
  2  3  2  0
  3  4  1  0
  4  5  2  0
  5  6  1  0
  6  7  2  0
  6  8  1  0
  8  9  2  0
  8 10  1  0
 10 11  1  0
 11 12  2  0
 11 13  2  0
  7  2  1  0
 11  5  1  0
  1 14  1  0
  1 15  1  0
  3 16  1  0
  4 17  1  0
  7 18  1  0
 10 19  1  0
M  END
