
     RDKit          3D

 21 22  0  0  0  0  0  0  0  0999 V2000
    3.4664   -0.9110    0.3920 C   0  0  0  0  0  0  0  0  0  0  0  0
    2.8548    0.3729    0.3386 O   0  0  0  0  0  0  0  0  0  0  0  0
    1.4975    0.4101    0.1689 C   0  0  0  0  0  0  0  0  0  0  0  0
    0.9558    1.7134    0.1231 C   0  0  0  0  0  0  0  0  0  0  0  0
   -0.4154    1.9285   -0.0409 C   0  0  0  0  0  0  0  0  0  0  0  0
   -1.2135    0.8090   -0.1540 C   0  0  0  0  0  0  0  0  0  0  0  0
   -0.6982   -0.4794   -0.1238 C   0  0  0  0  0  0  0  0  0  0  0  0
    0.6609   -0.7036    0.0468 C   0  0  0  0  0  0  0  0  0  0  0  0
   -1.7438   -1.5099   -0.2388 C   0  0  0  0  0  0  0  0  0  0  0  0
   -1.5881   -2.7015   -0.0668 O   0  0  0  0  0  0  0  0  0  0  0  0
   -2.9845   -0.8949   -0.4919 N   0  0  0  0  0  0  0  0  0  0  0  0
   -2.9366    0.7748   -0.3875 S   0  0  0  0  0  6  0  0  0  0  0  0
   -3.2410    1.3374   -1.6793 O   0  0  0  0  0  0  0  0  0  0  0  0
   -3.5818    1.1673    0.8409 O   0  0  0  0  0  0  0  0  0  0  0  0
    3.0982   -1.4873    1.2472 H   0  0  0  0  0  0  0  0  0  0  0  0
    4.5421   -0.7634    0.5274 H   0  0  0  0  0  0  0  0  0  0  0  0
    3.3196   -1.4567   -0.5459 H   0  0  0  0  0  0  0  0  0  0  0  0
    1.6244    2.5684    0.2180 H   0  0  0  0  0  0  0  0  0  0  0  0
   -0.8291    2.9312   -0.0788 H   0  0  0  0  0  0  0  0  0  0  0  0
    1.0296   -1.7228    0.0822 H   0  0  0  0  0  0  0  0  0  0  0  0
   -3.8175   -1.3825   -0.1775 H   0  0  0  0  0  0  0  0  0  0  0  0
  1  2  1  0
  2  3  1  0
  3  4  2  0
  4  5  1  0
  5  6  2  0
  6  7  1  0
  7  8  2  0
  7  9  1  0
  9 10  2  0
  9 11  1  0
 11 12  1  0
 12 13  2  0
 12 14  2  0
  8  3  1  0
 12  6  1  0
  1 15  1  0
  1 16  1  0
  1 17  1  0
  4 18  1  0
  5 19  1  0
  8 20  1  0
 11 21  1  0
M  END
