
     RDKit          3D

 66 68  0  0  0  0  0  0  0  0999 V2000
   -3.2926   -2.7739    1.9484 O   0  0  0  0  0  0  0  0  0  0  0  0
   -3.9232   -1.6292    1.3787 C   0  0  0  0  0  0  0  0  0  0  0  0
   -3.4630   -1.4450   -0.0633 C   0  0  0  0  0  0  0  0  0  0  0  0
   -3.9840   -0.2288   -0.6248 O   0  0  0  0  0  0  0  0  0  0  0  0
   -3.0258    0.2182   -1.6287 C   0  0  0  0  0  0  0  0  0  0  0  0
   -1.7986   -0.7352   -1.5690 C   0  0  0  0  0  0  0  0  0  0  0  0
   -1.9454   -1.3450   -0.1815 C   0  0  0  0  0  0  0  0  0  0  0  0
   -1.2757   -2.5990   -0.0766 O   0  0  0  0  0  0  0  0  0  0  0  0
   -1.8706   -1.8101   -2.5257 O   0  0  0  0  0  0  0  0  0  0  0  0
   -3.7543    0.1332   -2.9949 C   0  0  0  0  0  0  0  0  0  0  0  0
   -4.9389    0.9521   -2.9965 O   0  0  0  0  0  0  0  0  0  0  0  0
   -2.7238    1.6077   -1.4290 O   0  0  0  0  0  0  0  0  0  0  0  0
   -2.1728    1.9581   -0.1635 C   0  0  0  0  0  0  0  0  0  0  0  0
   -0.8019    1.5739   -0.1359 O   0  0  0  0  0  0  0  0  0  0  0  0
   -0.1660    1.8819    1.1134 C   0  0  0  0  0  0  0  0  0  0  0  0
    1.2581    1.3116    1.0668 C   0  0  0  0  0  0  0  0  0  0  0  0
    1.1930   -0.1250    1.0091 O   0  0  0  0  0  0  0  0  0  0  0  0
    2.5020   -0.6968    0.8816 C   0  0  0  0  0  0  0  0  0  0  0  0
    3.0239   -0.4204   -0.4228 O   0  0  0  0  0  0  0  0  0  0  0  0
    4.3606   -0.9292   -0.5831 C   0  0  0  0  0  0  0  0  0  0  0  0
    4.8205   -0.5267   -1.9882 C   0  0  0  0  0  0  0  0  0  0  0  0
    4.7500    0.8923   -2.1283 O   0  0  0  0  0  0  0  0  0  0  0  0
    4.4152   -2.4562   -0.3926 C   0  0  0  0  0  0  0  0  0  0  0  0
    3.7864   -2.8468    0.9557 C   0  0  0  0  0  0  0  0  0  0  0  0
    2.4004   -2.2227    1.1046 C   0  0  0  0  0  0  0  0  0  0  0  0
    1.5302   -2.8423    0.1444 O   0  0  0  0  0  0  0  0  0  0  0  0
    4.6472   -2.4177    2.0219 O   0  0  0  0  0  0  0  0  0  0  0  0
    5.7718   -2.9267   -0.3937 O   0  0  0  0  0  0  0  0  0  0  0  0
   -0.1585    3.4042    1.3329 C   0  0  0  0  0  0  0  0  0  0  0  0
   -1.5948    3.9506    1.2615 C   0  0  0  0  0  0  0  0  0  0  0  0
   -2.2917    3.4921   -0.0180 C   0  0  0  0  0  0  0  0  0  0  0  0
   -1.6822    4.1519   -1.1413 O   0  0  0  0  0  0  0  0  0  0  0  0
   -2.3308    3.4995    2.4088 O   0  0  0  0  0  0  0  0  0  0  0  0
    0.3908    3.7242    2.6181 O   0  0  0  0  0  0  0  0  0  0  0  0
   -3.6962   -2.9066    2.8264 H   0  0  0  0  0  0  0  0  0  0  0  0
   -5.0098   -1.7610    1.4151 H   0  0  0  0  0  0  0  0  0  0  0  0
   -3.6772   -0.7500    1.9846 H   0  0  0  0  0  0  0  0  0  0  0  0
   -3.8295   -2.2939   -0.6557 H   0  0  0  0  0  0  0  0  0  0  0  0
   -0.8364   -0.2425   -1.7280 H   0  0  0  0  0  0  0  0  0  0  0  0
   -1.5463   -0.6839    0.5902 H   0  0  0  0  0  0  0  0  0  0  0  0
   -1.6852   -3.0524    0.6946 H   0  0  0  0  0  0  0  0  0  0  0  0
   -1.3037   -2.5161   -2.1478 H   0  0  0  0  0  0  0  0  0  0  0  0
   -4.0895   -0.8863   -3.2089 H   0  0  0  0  0  0  0  0  0  0  0  0
   -3.1127    0.4864   -3.8081 H   0  0  0  0  0  0  0  0  0  0  0  0
   -5.3031    0.8766   -2.0943 H   0  0  0  0  0  0  0  0  0  0  0  0
   -2.7241    1.4676    0.6471 H   0  0  0  0  0  0  0  0  0  0  0  0
   -0.7069    1.3694    1.9201 H   0  0  0  0  0  0  0  0  0  0  0  0
    1.7754    1.6844    0.1754 H   0  0  0  0  0  0  0  0  0  0  0  0
    1.8180    1.6009    1.9629 H   0  0  0  0  0  0  0  0  0  0  0  0
    3.1564   -0.2514    1.6427 H   0  0  0  0  0  0  0  0  0  0  0  0
    5.0097   -0.4195    0.1414 H   0  0  0  0  0  0  0  0  0  0  0  0
    5.8519   -0.8357   -2.1801 H   0  0  0  0  0  0  0  0  0  0  0  0
    4.1722   -0.9620   -2.7558 H   0  0  0  0  0  0  0  0  0  0  0  0
    3.8489    1.1340   -1.8352 H   0  0  0  0  0  0  0  0  0  0  0  0
    3.8665   -2.9622   -1.1972 H   0  0  0  0  0  0  0  0  0  0  0  0
    3.7249   -3.9401    1.0197 H   0  0  0  0  0  0  0  0  0  0  0  0
    1.9869   -2.4190    2.1002 H   0  0  0  0  0  0  0  0  0  0  0  0
    0.6811   -2.3518    0.1676 H   0  0  0  0  0  0  0  0  0  0  0  0
    5.5397   -2.7233    1.7544 H   0  0  0  0  0  0  0  0  0  0  0  0
    6.0305   -3.0728   -1.3220 H   0  0  0  0  0  0  0  0  0  0  0  0
    0.4571    3.8843    0.5621 H   0  0  0  0  0  0  0  0  0  0  0  0
   -1.5650    5.0451    1.3132 H   0  0  0  0  0  0  0  0  0  0  0  0
   -3.3506    3.7737   -0.0126 H   0  0  0  0  0  0  0  0  0  0  0  0
   -1.9550    3.6264   -1.9222 H   0  0  0  0  0  0  0  0  0  0  0  0
   -1.7335    3.6203    3.1743 H   0  0  0  0  0  0  0  0  0  0  0  0
    0.5494    4.6865    2.6279 H   0  0  0  0  0  0  0  0  0  0  0  0
  1  2  1  0
  2  3  1  0
  3  4  1  0
  4  5  1  0
  5  6  1  0
  6  7  1  0
  7  8  1  0
  6  9  1  0
  5 10  1  0
 10 11  1  0
  5 12  1  0
 12 13  1  0
 13 14  1  0
 14 15  1  0
 15 16  1  0
 16 17  1  0
 17 18  1  0
 18 19  1  0
 19 20  1  0
 20 21  1  0
 21 22  1  0
 20 23  1  0
 23 24  1  0
 24 25  1  0
 25 26  1  0
 24 27  1  0
 23 28  1  0
 15 29  1  0
 29 30  1  0
 30 31  1  0
 31 32  1  0
 30 33  1  0
 29 34  1  0
  7  3  1  0
 31 13  1  0
 25 18  1  0
  1 35  1  0
  2 36  1  0
  2 37  1  0
  3 38  1  0
  6 39  1  0
  7 40  1  0
  8 41  1  0
  9 42  1  0
 10 43  1  0
 10 44  1  0
 11 45  1  0
 13 46  1  0
 15 47  1  0
 16 48  1  0
 16 49  1  0
 18 50  1  0
 20 51  1  0
 21 52  1  0
 21 53  1  0
 22 54  1  0
 23 55  1  0
 24 56  1  0
 25 57  1  0
 26 58  1  0
 27 59  1  0
 28 60  1  0
 29 61  1  0
 30 62  1  0
 31 63  1  0
 32 64  1  0
 33 65  1  0
 34 66  1  0
M  END
