
     RDKit          3D

 17 18  0  0  0  0  0  0  0  0999 V2000
    1.3167    2.7672    0.0547 O   0  0  0  0  0  0  0  0  0  0  0  0
    1.2248    1.5602    0.1177 C   0  0  0  0  0  0  0  0  0  0  0  0
    2.3462    0.7061    0.1098 N   0  0  0  0  0  0  0  0  0  0  0  0
    1.9669   -0.8985   -0.1360 S   0  0  0  0  0  6  0  0  0  0  0  0
    2.3175   -1.2470   -1.4903 O   0  0  0  0  0  0  0  0  0  0  0  0
    2.3504   -1.6622    1.0244 O   0  0  0  0  0  0  0  0  0  0  0  0
    0.2542   -0.6045   -0.0635 C   0  0  0  0  0  0  0  0  0  0  0  0
   -0.0113    0.7514    0.1105 C   0  0  0  0  0  0  0  0  0  0  0  0
   -1.3238    1.1793    0.2145 C   0  0  0  0  0  0  0  0  0  0  0  0
   -1.7618    2.8271    0.4307 Cl  0  0  0  0  0  0  0  0  0  0  0  0
   -2.3475    0.2212    0.1495 C   0  0  0  0  0  0  0  0  0  0  0  0
   -2.0546   -1.1442   -0.0196 C   0  0  0  0  0  0  0  0  0  0  0  0
   -0.7333   -1.5730   -0.1260 C   0  0  0  0  0  0  0  0  0  0  0  0
    3.2001    1.0783   -0.2951 H   0  0  0  0  0  0  0  0  0  0  0  0
   -3.3887    0.5309    0.2318 H   0  0  0  0  0  0  0  0  0  0  0  0
   -2.8671   -1.8679   -0.0638 H   0  0  0  0  0  0  0  0  0  0  0  0
   -0.4888   -2.6244   -0.2493 H   0  0  0  0  0  0  0  0  0  0  0  0
  1  2  2  0
  2  3  1  0
  3  4  1  0
  4  5  2  0
  4  6  2  0
  4  7  1  0
  7  8  2  0
  8  9  1  0
  9 10  1  0
  9 11  2  0
 11 12  1  0
 12 13  2  0
  8  2  1  0
 13  7  1  0
  3 14  1  0
 11 15  1  0
 12 16  1  0
 13 17  1  0
M  END
