
     RDKit          3D

 19 20  0  0  0  0  0  0  0  0999 V2000
    0.9309    2.7006   -0.0542 O   0  0  0  0  0  0  0  0  0  0  0  0
    1.1089    1.5073    0.0946 C   0  0  0  0  0  0  0  0  0  0  0  0
    2.3802    0.9104    0.2096 N   0  0  0  0  0  0  0  0  0  0  0  0
    2.3466   -0.7520    0.0418 S   0  0  0  0  0  6  0  0  0  0  0  0
    2.8660   -1.0820   -1.2627 O   0  0  0  0  0  0  0  0  0  0  0  0
    2.7956   -1.3619    1.2684 O   0  0  0  0  0  0  0  0  0  0  0  0
    0.6110   -0.8164   -0.0145 C   0  0  0  0  0  0  0  0  0  0  0  0
    0.0675    0.4623    0.0582 C   0  0  0  0  0  0  0  0  0  0  0  0
   -1.3092    0.6566    0.0236 C   0  0  0  0  0  0  0  0  0  0  0  0
   -1.9027    1.9050    0.2258 N   0  0  0  0  0  0  0  0  0  0  0  0
   -2.1072   -0.4989    0.0081 C   0  0  0  0  0  0  0  0  0  0  0  0
   -1.5440   -1.7897   -0.0582 C   0  0  0  0  0  0  0  0  0  0  0  0
   -0.1615   -1.9604   -0.0739 C   0  0  0  0  0  0  0  0  0  0  0  0
    3.1632    1.4249   -0.1810 H   0  0  0  0  0  0  0  0  0  0  0  0
   -2.8407    2.0078   -0.1488 H   0  0  0  0  0  0  0  0  0  0  0  0
   -1.3015    2.7011   -0.0016 H   0  0  0  0  0  0  0  0  0  0  0  0
   -3.1913   -0.4076    0.0555 H   0  0  0  0  0  0  0  0  0  0  0  0
   -2.1989   -2.6590   -0.0791 H   0  0  0  0  0  0  0  0  0  0  0  0
    0.2871   -2.9482   -0.1117 H   0  0  0  0  0  0  0  0  0  0  0  0
  1  2  2  0
  2  3  1  0
  3  4  1  0
  4  5  2  0
  4  6  2  0
  4  7  1  0
  7  8  2  0
  8  9  1  0
  9 10  1  0
  9 11  2  0
 11 12  1  0
 12 13  2  0
  8  2  1  0
 13  7  1  0
  3 14  1  0
 10 15  1  0
 10 16  1  0
 11 17  1  0
 12 18  1  0
 13 19  1  0
M  END
