
     RDKit          3D

 21 22  0  0  0  0  0  0  0  0999 V2000
    2.9571   -1.3608   -0.1332 C   0  0  0  0  0  0  0  0  0  0  0  0
    1.5613   -1.3683    0.1418 O   0  0  0  0  0  0  0  0  0  0  0  0
    0.8686   -0.2221   -0.0949 C   0  0  0  0  0  0  0  0  0  0  0  0
    1.3955    0.9659   -0.6152 C   0  0  0  0  0  0  0  0  0  0  0  0
    0.5773    2.0961   -0.8237 C   0  0  0  0  0  0  0  0  0  0  0  0
   -0.7840    2.0613   -0.5156 C   0  0  0  0  0  0  0  0  0  0  0  0
   -1.2960    0.8856    0.0058 C   0  0  0  0  0  0  0  0  0  0  0  0
   -0.4818   -0.2243    0.1986 C   0  0  0  0  0  0  0  0  0  0  0  0
   -1.3979   -1.5370    0.8709 S   0  0  0  0  0  6  0  0  0  0  0  0
   -0.9687   -1.7907    2.2247 O   0  0  0  0  0  0  0  0  0  0  0  0
   -1.5928   -2.5600   -0.1281 O   0  0  0  0  0  0  0  0  0  0  0  0
   -2.8157   -0.6425    0.9396 N   0  0  0  0  0  0  0  0  0  0  0  0
   -2.7020    0.6321    0.3587 C   0  0  0  0  0  0  0  0  0  0  0  0
   -3.6386    1.3664    0.1190 O   0  0  0  0  0  0  0  0  0  0  0  0
    3.1470   -1.1924   -1.1983 H   0  0  0  0  0  0  0  0  0  0  0  0
    3.3541   -2.3472    0.1249 H   0  0  0  0  0  0  0  0  0  0  0  0
    3.4763   -0.6196    0.4833 H   0  0  0  0  0  0  0  0  0  0  0  0
    2.4471    1.0536   -0.8759 H   0  0  0  0  0  0  0  0  0  0  0  0
    1.0145    3.0054   -1.2336 H   0  0  0  0  0  0  0  0  0  0  0  0
   -1.4206    2.9259   -0.6823 H   0  0  0  0  0  0  0  0  0  0  0  0
   -3.7008   -1.1274    0.8336 H   0  0  0  0  0  0  0  0  0  0  0  0
  1  2  1  0
  2  3  1  0
  3  4  2  0
  4  5  1  0
  5  6  2  0
  6  7  1  0
  7  8  2  0
  8  9  1  0
  9 10  2  0
  9 11  2  0
  9 12  1  0
 12 13  1  0
 13 14  2  0
  8  3  1  0
 13  7  1  0
  1 15  1  0
  1 16  1  0
  1 17  1  0
  4 18  1  0
  5 19  1  0
  6 20  1  0
 12 21  1  0
M  END
