
     RDKit          3D

 14 15  0  0  0  0  0  0  0  0999 V2000
   -0.6837   -2.6253    0.7549 O   0  0  0  0  0  0  0  0  0  0  0  0
   -0.6447   -1.4544    0.4239 C   0  0  0  0  0  0  0  0  0  0  0  0
   -1.7780   -0.6383    0.2185 N   0  0  0  0  0  0  0  0  0  0  0  0
   -1.4105    0.9336   -0.2326 S   0  0  0  0  0  6  0  0  0  0  0  0
   -1.7493    1.1463   -1.6156 O   0  0  0  0  0  0  0  0  0  0  0  0
   -1.6958    1.8409    0.8483 O   0  0  0  0  0  0  0  0  0  0  0  0
    0.2784    0.6922   -0.2012 C   0  0  0  0  0  0  0  0  0  0  0  0
    0.5361   -0.6473    0.1708 C   0  0  0  0  0  0  0  0  0  0  0  0
    1.8808   -0.9105    0.2158 C   0  0  0  0  0  0  0  0  0  0  0  0
    2.7952    0.4994   -0.2014 S   0  0  0  0  0  0  0  0  0  0  0  0
    1.3784    1.4590   -0.4412 C   0  0  0  0  0  0  0  0  0  0  0  0
   -2.7305   -0.9574    0.3291 H   0  0  0  0  0  0  0  0  0  0  0  0
    2.3827   -1.8364    0.4660 H   0  0  0  0  0  0  0  0  0  0  0  0
    1.4409    2.4981   -0.7354 H   0  0  0  0  0  0  0  0  0  0  0  0
  1  2  2  0
  2  3  1  0
  3  4  1  0
  4  5  2  0
  4  6  2  0
  4  7  1  0
  7  8  1  0
  8  9  2  0
  9 10  1  0
 10 11  1  0
  8  2  1  0
 11  7  2  0
  3 12  1  0
  9 13  1  0
 11 14  1  0
M  END
