
     RDKit          3D

 29 29  0  0  0  0  0  0  0  0999 V2000
    5.5748   -0.8231   -0.2033 O   0  0  0  0  0  0  0  0  0  0  0  0
    4.3583   -0.1878    0.0740 N   0  0  0  0  0  0  0  0  0  0  0  0
    3.3910   -0.9060   -0.3985 C   0  0  0  0  0  0  0  0  0  0  0  0
    1.9617   -0.5235   -0.2743 C   0  0  0  0  0  0  0  0  0  0  0  0
    1.0359   -1.3572   -0.7738 C   0  0  0  0  0  0  0  0  0  0  0  0
   -0.4402   -1.0869   -0.6841 C   0  0  0  0  0  0  0  0  0  0  0  0
   -0.8149    0.0465    0.3042 C   0  0  0  0  0  0  0  0  0  0  0  0
    0.1761    1.2189    0.1343 C   0  0  0  0  0  0  0  0  0  0  0  0
    1.6240    0.7784    0.3871 C   0  0  0  0  0  0  0  0  0  0  0  0
   -2.3219    0.4639    0.2259 C   0  0  0  0  0  0  0  0  0  0  0  0
   -2.7080    1.2105   -1.3706 Cl  0  0  0  0  0  0  0  0  0  0  0  0
   -2.6758    1.4942    1.3116 C   0  0  0  0  0  0  0  0  0  0  0  0
   -3.2491   -0.7507    0.4011 C   0  0  0  0  0  0  0  0  0  0  0  0
    6.2242   -0.2052    0.1815 H   0  0  0  0  0  0  0  0  0  0  0  0
    3.5959   -1.8586   -0.9207 H   0  0  0  0  0  0  0  0  0  0  0  0
    1.3239   -2.2808   -1.2709 H   0  0  0  0  0  0  0  0  0  0  0  0
   -0.7992   -0.8649   -1.6950 H   0  0  0  0  0  0  0  0  0  0  0  0
   -0.9264   -2.0165   -0.3660 H   0  0  0  0  0  0  0  0  0  0  0  0
   -0.6548   -0.3542    1.3175 H   0  0  0  0  0  0  0  0  0  0  0  0
    0.1031    1.6306   -0.8801 H   0  0  0  0  0  0  0  0  0  0  0  0
   -0.0507    2.0358    0.8263 H   0  0  0  0  0  0  0  0  0  0  0  0
    1.7875    0.6760    1.4672 H   0  0  0  0  0  0  0  0  0  0  0  0
    2.2900    1.5739    0.0324 H   0  0  0  0  0  0  0  0  0  0  0  0
   -3.7508    1.7112    1.3203 H   0  0  0  0  0  0  0  0  0  0  0  0
   -2.4097    1.1201    2.3066 H   0  0  0  0  0  0  0  0  0  0  0  0
   -2.1623    2.4493    1.1628 H   0  0  0  0  0  0  0  0  0  0  0  0
   -3.1491   -1.4693   -0.4193 H   0  0  0  0  0  0  0  0  0  0  0  0
   -3.0308   -1.2762    1.3375 H   0  0  0  0  0  0  0  0  0  0  0  0
   -4.3027   -0.4484    0.4326 H   0  0  0  0  0  0  0  0  0  0  0  0
  1  2  1  0
  2  3  2  3
  3  4  1  0
  4  5  2  0
  5  6  1  0
  6  7  1  0
  7  8  1  0
  8  9  1  0
  7 10  1  0
 10 11  1  0
 10 12  1  0
 10 13  1  0
  9  4  1  0
  1 14  1  0
  3 15  1  0
  5 16  1  0
  6 17  1  0
  6 18  1  0
  7 19  1  0
  8 20  1  0
  8 21  1  0
  9 22  1  0
  9 23  1  0
 12 24  1  0
 12 25  1  0
 12 26  1  0
 13 27  1  0
 13 28  1  0
 13 29  1  0
M  END
