
     RDKit          3D

 13 13  0  0  0  0  0  0  0  0999 V2000
    3.4504   -0.3368   -0.1877 O   0  0  0  0  0  0  0  0  0  0  0  0
    2.2241    0.2204    0.1993 N   0  0  0  0  0  0  0  0  0  0  0  0
    1.2603   -0.5166   -0.2579 C   0  0  0  0  0  0  0  0  0  0  0  0
   -0.1113   -0.1801   -0.0107 C   0  0  0  0  0  0  0  0  0  0  0  0
   -0.7055    0.8607    0.6764 C   0  0  0  0  0  0  0  0  0  0  0  0
   -2.1041    0.6649    0.5791 C   0  0  0  0  0  0  0  0  0  0  0  0
   -2.2783   -0.4810   -0.1599 C   0  0  0  0  0  0  0  0  0  0  0  0
   -1.0774   -1.0012   -0.5225 O   0  0  0  0  0  0  0  0  0  0  0  0
    4.0952    0.2841    0.2010 H   0  0  0  0  0  0  0  0  0  0  0  0
    1.4626   -1.4258   -0.8515 H   0  0  0  0  0  0  0  0  0  0  0  0
   -0.1817    1.6598    1.1832 H   0  0  0  0  0  0  0  0  0  0  0  0
   -2.8878    1.2819    0.9956 H   0  0  0  0  0  0  0  0  0  0  0  0
   -3.1465   -1.0302   -0.4974 H   0  0  0  0  0  0  0  0  0  0  0  0
  1  2  1  0
  2  3  2  3
  3  4  1  0
  4  5  2  0
  5  6  1  0
  6  7  2  0
  7  8  1  0
  8  4  1  0
  1  9  1  0
  3 10  1  0
  5 11  1  0
  6 12  1  0
  7 13  1  0
M  END
