
     RDKit          3D

 17 17  0  0  0  0  0  0  0  0999 V2000
    4.1039    0.1033    1.2573 O   0  0  0  0  0  0  0  0  0  0  0  0
    3.0745    0.5249    0.4049 N   0  0  0  0  0  0  0  0  0  0  0  0
    1.9859   -0.1099    0.7089 C   0  0  0  0  0  0  0  0  0  0  0  0
    0.7656    0.1254   -0.0068 C   0  0  0  0  0  0  0  0  0  0  0  0
    0.4516    0.9656   -1.0567 C   0  0  0  0  0  0  0  0  0  0  0  0
   -0.9198    0.7646   -1.3434 C   0  0  0  0  0  0  0  0  0  0  0  0
   -1.3657   -0.1896   -0.4546 C   0  0  0  0  0  0  0  0  0  0  0  0
   -0.3452   -0.5801    0.3647 O   0  0  0  0  0  0  0  0  0  0  0  0
   -2.6777   -0.8346   -0.2226 C   0  0  0  0  0  0  0  0  0  0  0  0
   -3.1326   -0.4363    1.0644 O   0  0  0  0  0  0  0  0  0  0  0  0
    4.8623    0.6354    0.9501 H   0  0  0  0  0  0  0  0  0  0  0  0
    1.9615   -0.8516    1.5268 H   0  0  0  0  0  0  0  0  0  0  0  0
    1.1383    1.6418   -1.5479 H   0  0  0  0  0  0  0  0  0  0  0  0
   -1.5127    1.2572   -2.1018 H   0  0  0  0  0  0  0  0  0  0  0  0
   -2.5925   -1.9249   -0.2472 H   0  0  0  0  0  0  0  0  0  0  0  0
   -3.4171   -0.5217   -0.9650 H   0  0  0  0  0  0  0  0  0  0  0  0
   -2.3805   -0.5696    1.6691 H   0  0  0  0  0  0  0  0  0  0  0  0
  1  2  1  0
  2  3  2  3
  3  4  1  0
  4  5  2  0
  5  6  1  0
  6  7  2  0
  7  8  1  0
  7  9  1  0
  9 10  1  0
  8  4  1  0
  1 11  1  0
  3 12  1  0
  5 13  1  0
  6 14  1  0
  9 15  1  0
  9 16  1  0
 10 17  1  0
M  END
