
     RDKit          3D

 26 27  0  0  0  0  0  0  0  0999 V2000
    5.9170    1.1759   -0.7252 O   0  0  0  0  0  0  0  0  0  0  0  0
    4.8356    1.0443    0.1565 N   0  0  0  0  0  0  0  0  0  0  0  0
    3.8932    0.3702   -0.4254 C   0  0  0  0  0  0  0  0  0  0  0  0
    2.6609    0.0830    0.2487 C   0  0  0  0  0  0  0  0  0  0  0  0
    2.1962    0.3962    1.5103 C   0  0  0  0  0  0  0  0  0  0  0  0
    0.8987   -0.1586    1.6146 C   0  0  0  0  0  0  0  0  0  0  0  0
    0.6421   -0.7774    0.4088 C   0  0  0  0  0  0  0  0  0  0  0  0
    1.7136   -0.6362   -0.4244 O   0  0  0  0  0  0  0  0  0  0  0  0
   -0.5191   -1.5401   -0.1252 C   0  0  0  0  0  0  0  0  0  0  0  0
   -1.7926   -0.7268   -0.1644 C   0  0  0  0  0  0  0  0  0  0  0  0
   -1.9697    0.2659   -1.1398 C   0  0  0  0  0  0  0  0  0  0  0  0
   -3.1400    1.0254   -1.1733 C   0  0  0  0  0  0  0  0  0  0  0  0
   -4.1433    0.8027   -0.2322 C   0  0  0  0  0  0  0  0  0  0  0  0
   -3.9770   -0.1777    0.7443 C   0  0  0  0  0  0  0  0  0  0  0  0
   -2.8071   -0.9385    0.7803 C   0  0  0  0  0  0  0  0  0  0  0  0
    6.5562    1.6909   -0.1975 H   0  0  0  0  0  0  0  0  0  0  0  0
    4.0078   -0.0051   -1.4578 H   0  0  0  0  0  0  0  0  0  0  0  0
    2.7367    0.9608    2.2578 H   0  0  0  0  0  0  0  0  0  0  0  0
    0.2263   -0.1084    2.4600 H   0  0  0  0  0  0  0  0  0  0  0  0
   -0.6669   -2.4375    0.4886 H   0  0  0  0  0  0  0  0  0  0  0  0
   -0.3048   -1.9053   -1.1378 H   0  0  0  0  0  0  0  0  0  0  0  0
   -1.1907    0.4545   -1.8760 H   0  0  0  0  0  0  0  0  0  0  0  0
   -3.2669    1.7928   -1.9323 H   0  0  0  0  0  0  0  0  0  0  0  0
   -5.0539    1.3953   -0.2585 H   0  0  0  0  0  0  0  0  0  0  0  0
   -4.7590   -0.3490    1.4795 H   0  0  0  0  0  0  0  0  0  0  0  0
   -2.6930   -1.6970    1.5514 H   0  0  0  0  0  0  0  0  0  0  0  0
  1  2  1  0
  2  3  2  3
  3  4  1  0
  4  5  2  0
  5  6  1  0
  6  7  2  0
  7  8  1  0
  7  9  1  0
  9 10  1  0
 10 11  2  0
 11 12  1  0
 12 13  2  0
 13 14  1  0
 14 15  2  0
  8  4  1  0
 15 10  1  0
  1 16  1  0
  3 17  1  0
  5 18  1  0
  6 19  1  0
  9 20  1  0
  9 21  1  0
 11 22  1  0
 12 23  1  0
 13 24  1  0
 14 25  1  0
 15 26  1  0
M  END
