
     RDKit          3D

 23 23  0  0  0  0  0  0  0  0999 V2000
    4.4841    0.6218    0.4349 O   0  0  0  0  0  0  0  0  0  0  0  0
    3.2292    0.0408    0.6538 N   0  0  0  0  0  0  0  0  0  0  0  0
    2.3391    0.6890   -0.0270 C   0  0  0  0  0  0  0  0  0  0  0  0
    0.8855    0.3460   -0.0256 C   0  0  0  0  0  0  0  0  0  0  0  0
    0.0939    1.1515   -0.7584 C   0  0  0  0  0  0  0  0  0  0  0  0
   -1.4055    1.1025   -0.8723 C   0  0  0  0  0  0  0  0  0  0  0  0
   -2.1343    0.5562    0.3528 C   0  0  0  0  0  0  0  0  0  0  0  0
   -2.0858   -0.9617    0.4933 C   0  0  0  0  0  0  0  0  0  0  0  0
   -0.7430   -1.6174    0.1862 C   0  0  0  0  0  0  0  0  0  0  0  0
    0.4720   -0.8788    0.7500 C   0  0  0  0  0  0  0  0  0  0  0  0
    5.0681    0.0671    0.9849 H   0  0  0  0  0  0  0  0  0  0  0  0
    2.6337    1.5557   -0.6471 H   0  0  0  0  0  0  0  0  0  0  0  0
    0.5404    1.9727   -1.3190 H   0  0  0  0  0  0  0  0  0  0  0  0
   -1.7466    2.1362   -1.0156 H   0  0  0  0  0  0  0  0  0  0  0  0
   -1.6899    0.5554   -1.7784 H   0  0  0  0  0  0  0  0  0  0  0  0
   -3.1882    0.8580    0.3032 H   0  0  0  0  0  0  0  0  0  0  0  0
   -1.7331    1.0223    1.2622 H   0  0  0  0  0  0  0  0  0  0  0  0
   -2.8422   -1.4084   -0.1644 H   0  0  0  0  0  0  0  0  0  0  0  0
   -2.3873   -1.2202    1.5163 H   0  0  0  0  0  0  0  0  0  0  0  0
   -0.6325   -1.7406   -0.8991 H   0  0  0  0  0  0  0  0  0  0  0  0
   -0.7629   -2.6337    0.6002 H   0  0  0  0  0  0  0  0  0  0  0  0
    1.2969   -1.6024    0.7368 H   0  0  0  0  0  0  0  0  0  0  0  0
    0.3084   -0.6118    1.8009 H   0  0  0  0  0  0  0  0  0  0  0  0
  1  2  1  0
  2  3  2  3
  3  4  1  0
  4  5  2  0
  5  6  1  0
  6  7  1  0
  7  8  1  0
  8  9  1  0
  9 10  1  0
 10  4  1  0
  1 11  1  0
  3 12  1  0
  5 13  1  0
  6 14  1  0
  6 15  1  0
  7 16  1  0
  7 17  1  0
  8 18  1  0
  8 19  1  0
  9 20  1  0
  9 21  1  0
 10 22  1  0
 10 23  1  0
M  END
