
     RDKit          3D

 22 22  0  0  0  0  0  0  0  0999 V2000
    3.8188    0.6176   -0.2119 O   0  0  0  0  0  0  0  0  0  0  0  0
    2.8482   -0.2368   -0.7467 N   0  0  0  0  0  0  0  0  0  0  0  0
    1.6949    0.0831   -0.2553 C   0  0  0  0  0  0  0  0  0  0  0  0
    0.4474   -0.6750   -0.6556 C   0  0  0  0  0  0  0  0  0  0  0  0
   -0.1695   -1.3689    0.5622 C   0  0  0  0  0  0  0  0  0  0  0  0
   -0.9139   -0.4129    1.4930 C   0  0  0  0  0  0  0  0  0  0  0  0
   -1.9307    0.4347    0.7376 C   0  0  0  0  0  0  0  0  0  0  0  0
   -1.2796    1.1948   -0.4119 C   0  0  0  0  0  0  0  0  0  0  0  0
   -0.5394    0.2572   -1.3644 C   0  0  0  0  0  0  0  0  0  0  0  0
    4.6358    0.2977   -0.6387 H   0  0  0  0  0  0  0  0  0  0  0  0
    1.5845    0.9122    0.4657 H   0  0  0  0  0  0  0  0  0  0  0  0
    0.7610   -1.4488   -1.3689 H   0  0  0  0  0  0  0  0  0  0  0  0
    0.6038   -1.8971    1.1330 H   0  0  0  0  0  0  0  0  0  0  0  0
   -0.8763   -2.1310    0.2093 H   0  0  0  0  0  0  0  0  0  0  0  0
   -0.1975    0.2421    2.0029 H   0  0  0  0  0  0  0  0  0  0  0  0
   -1.4242   -0.9880    2.2742 H   0  0  0  0  0  0  0  0  0  0  0  0
   -2.7266   -0.2105    0.3458 H   0  0  0  0  0  0  0  0  0  0  0  0
   -2.4043    1.1432    1.4265 H   0  0  0  0  0  0  0  0  0  0  0  0
   -0.5840    1.9412   -0.0102 H   0  0  0  0  0  0  0  0  0  0  0  0
   -2.0464    1.7475   -0.9669 H   0  0  0  0  0  0  0  0  0  0  0  0
   -0.0218    0.8533   -2.1257 H   0  0  0  0  0  0  0  0  0  0  0  0
   -1.2801   -0.3557   -1.8941 H   0  0  0  0  0  0  0  0  0  0  0  0
  1  2  1  0
  2  3  2  3
  3  4  1  0
  4  5  1  0
  5  6  1  0
  6  7  1  0
  7  8  1  0
  8  9  1  0
  9  4  1  0
  1 10  1  0
  3 11  1  0
  4 12  1  0
  5 13  1  0
  5 14  1  0
  6 15  1  0
  6 16  1  0
  7 17  1  0
  7 18  1  0
  8 19  1  0
  8 20  1  0
  9 21  1  0
  9 22  1  0
M  END
