
     RDKit          3D

 23 23  0  0  0  0  0  0  0  0999 V2000
    1.9586   -1.5636   -0.5147 O   0  0  0  0  0  0  0  0  0  0  0  0
    0.9256   -0.7532    0.0549 C   0  0  0  0  0  0  0  0  0  0  0  0
    0.9676    0.6710   -0.5204 C   0  0  0  0  0  0  0  0  0  0  0  0
    2.2574    1.3889   -0.1374 C   0  0  0  0  0  0  0  0  0  0  0  0
   -0.1261    1.4599   -0.0324 O   0  0  0  0  0  0  0  0  0  0  0  0
   -1.3909    0.9172   -0.3827 C   0  0  0  0  0  0  0  0  0  0  0  0
   -1.5798   -0.4984    0.1905 C   0  0  0  0  0  0  0  0  0  0  0  0
   -0.4319   -1.4004   -0.2478 C   0  0  0  0  0  0  0  0  0  0  0  0
   -0.5012   -2.6623    0.4364 O   0  0  0  0  0  0  0  0  0  0  0  0
   -1.5940   -0.4643    1.6353 O   0  0  0  0  0  0  0  0  0  0  0  0
   -2.3791    1.7547    0.2013 O   0  0  0  0  0  0  0  0  0  0  0  0
    1.7523   -2.4785   -0.2354 H   0  0  0  0  0  0  0  0  0  0  0  0
    1.0912   -0.7333    1.1393 H   0  0  0  0  0  0  0  0  0  0  0  0
    0.9191    0.6375   -1.6169 H   0  0  0  0  0  0  0  0  0  0  0  0
    3.1395    0.8659   -0.5184 H   0  0  0  0  0  0  0  0  0  0  0  0
    2.2587    2.4084   -0.5385 H   0  0  0  0  0  0  0  0  0  0  0  0
    2.3453    1.4804    0.9509 H   0  0  0  0  0  0  0  0  0  0  0  0
   -1.5153    0.9252   -1.4718 H   0  0  0  0  0  0  0  0  0  0  0  0
   -2.5481   -0.9156   -0.1056 H   0  0  0  0  0  0  0  0  0  0  0  0
   -0.5058   -1.6187   -1.3196 H   0  0  0  0  0  0  0  0  0  0  0  0
   -0.8143   -2.4417    1.3401 H   0  0  0  0  0  0  0  0  0  0  0  0
   -2.0367    0.3832    1.8553 H   0  0  0  0  0  0  0  0  0  0  0  0
   -2.1919    2.6377   -0.1624 H   0  0  0  0  0  0  0  0  0  0  0  0
  1  2  1  0
  2  3  1  0
  3  4  1  0
  3  5  1  0
  5  6  1  0
  6  7  1  0
  7  8  1  0
  8  9  1  0
  7 10  1  0
  6 11  1  0
  8  2  1  0
  1 12  1  0
  2 13  1  0
  3 14  1  0
  4 15  1  0
  4 16  1  0
  4 17  1  0
  6 18  1  0
  7 19  1  0
  8 20  1  0
  9 21  1  0
 10 22  1  0
 11 23  1  0
M  END
