
     RDKit          3D

 39 41  0  0  0  0  0  0  0  0999 V2000
    0.7895    3.9758    1.6895 C   0  0  0  0  0  0  0  0  0  0  0  0
    0.2084    3.1092    0.6152 C   0  0  0  0  0  0  0  0  0  0  0  0
   -0.1377    3.5096   -0.4867 O   0  0  0  0  0  0  0  0  0  0  0  0
    0.1408    1.8201    1.0434 O   0  0  0  0  0  0  0  0  0  0  0  0
   -0.4518    0.8996    0.1151 C   0  0  0  0  0  0  0  0  0  0  0  0
    0.1358   -0.5018    0.3074 C   0  0  0  0  0  0  0  0  0  0  0  0
   -0.4720   -1.4518   -0.5871 O   0  0  0  0  0  0  0  0  0  0  0  0
   -1.8392   -1.4726   -0.5343 C   0  0  0  0  0  0  0  0  0  0  0  0
   -2.6160   -0.4218   -0.0447 C   0  0  0  0  0  0  0  0  0  0  0  0
   -1.9372    0.8036    0.4112 C   0  0  0  0  0  0  0  0  0  0  0  0
   -2.5940    1.6768    0.9770 O   0  0  0  0  0  0  0  0  0  0  0  0
   -4.0110   -0.5401   -0.0129 C   0  0  0  0  0  0  0  0  0  0  0  0
   -4.8331    0.4427    0.4688 O   0  0  0  0  0  0  0  0  0  0  0  0
   -4.6312   -1.6918   -0.4909 C   0  0  0  0  0  0  0  0  0  0  0  0
   -3.8469   -2.7215   -1.0012 C   0  0  0  0  0  0  0  0  0  0  0  0
   -2.4585   -2.6198   -1.0290 C   0  0  0  0  0  0  0  0  0  0  0  0
   -4.4077   -3.8649   -1.4879 O   0  0  0  0  0  0  0  0  0  0  0  0
    1.6331   -0.5091    0.0334 C   0  0  0  0  0  0  0  0  0  0  0  0
    2.1387   -0.5119   -1.2816 C   0  0  0  0  0  0  0  0  0  0  0  0
    3.5163   -0.4895   -1.5235 C   0  0  0  0  0  0  0  0  0  0  0  0
    4.3923   -0.4583   -0.4468 C   0  0  0  0  0  0  0  0  0  0  0  0
    3.9033   -0.4493    0.8558 C   0  0  0  0  0  0  0  0  0  0  0  0
    2.5382   -0.4739    1.1063 C   0  0  0  0  0  0  0  0  0  0  0  0
    4.7709   -0.4124    1.9098 O   0  0  0  0  0  0  0  0  0  0  0  0
    5.7486   -0.4329   -0.6172 O   0  0  0  0  0  0  0  0  0  0  0  0
    1.8090    3.6530    1.9144 H   0  0  0  0  0  0  0  0  0  0  0  0
    0.8189    5.0126    1.3424 H   0  0  0  0  0  0  0  0  0  0  0  0
    0.1636    3.9270    2.5841 H   0  0  0  0  0  0  0  0  0  0  0  0
   -0.3346    1.2243   -0.9271 H   0  0  0  0  0  0  0  0  0  0  0  0
   -0.0258   -0.8577    1.3356 H   0  0  0  0  0  0  0  0  0  0  0  0
   -4.2726    1.1826    0.7974 H   0  0  0  0  0  0  0  0  0  0  0  0
   -5.7140   -1.7635   -0.4617 H   0  0  0  0  0  0  0  0  0  0  0  0
   -1.8635   -3.4381   -1.4263 H   0  0  0  0  0  0  0  0  0  0  0  0
   -5.3746   -3.8002   -1.4082 H   0  0  0  0  0  0  0  0  0  0  0  0
    1.4568   -0.5366   -2.1305 H   0  0  0  0  0  0  0  0  0  0  0  0
    3.8765   -0.4960   -2.5472 H   0  0  0  0  0  0  0  0  0  0  0  0
    2.1905   -0.4598    2.1360 H   0  0  0  0  0  0  0  0  0  0  0  0
    5.6572   -0.4076    1.4957 H   0  0  0  0  0  0  0  0  0  0  0  0
    5.9332   -0.4539   -1.5721 H   0  0  0  0  0  0  0  0  0  0  0  0
  1  2  1  0
  2  3  2  0
  2  4  1  0
  4  5  1  0
  5  6  1  0
  6  7  1  0
  7  8  1  0
  8  9  2  0
  9 10  1  0
 10 11  2  0
  9 12  1  0
 12 13  1  0
 12 14  2  0
 14 15  1  0
 15 16  2  0
 15 17  1  0
  6 18  1  0
 18 19  2  0
 19 20  1  0
 20 21  2  0
 21 22  1  0
 22 23  2  0
 22 24  1  0
 21 25  1  0
 10  5  1  0
 23 18  1  0
 16  8  1  0
  1 26  1  0
  1 27  1  0
  1 28  1  0
  5 29  1  0
  6 30  1  0
 13 31  1  0
 14 32  1  0
 16 33  1  0
 17 34  1  0
 19 35  1  0
 20 36  1  0
 23 37  1  0
 24 38  1  0
 25 39  1  0
M  END
