
     RDKit          3D

 36 38  0  0  0  0  0  0  0  0999 V2000
    5.9847    0.2042    1.0766 C   0  0  0  0  0  0  0  0  0  0  0  0
    5.3449    0.0010   -0.1782 O   0  0  0  0  0  0  0  0  0  0  0  0
    3.9745   -0.0317   -0.1681 C   0  0  0  0  0  0  0  0  0  0  0  0
    3.1541    0.0952    0.9504 C   0  0  0  0  0  0  0  0  0  0  0  0
    1.7607    0.0405    0.8084 C   0  0  0  0  0  0  0  0  0  0  0  0
    1.1652   -0.1347   -0.4525 C   0  0  0  0  0  0  0  0  0  0  0  0
    1.9963   -0.2684   -1.5725 C   0  0  0  0  0  0  0  0  0  0  0  0
    3.3775   -0.2144   -1.4196 C   0  0  0  0  0  0  0  0  0  0  0  0
    4.1535   -0.3481   -2.5395 O   0  0  0  0  0  0  0  0  0  0  0  0
   -0.3409   -0.2208   -0.6162 C   0  0  0  0  0  0  0  0  0  0  0  0
   -0.8241   -1.6406   -0.3532 C   0  0  0  0  0  0  0  0  0  0  0  0
   -2.3136   -1.6699   -0.5375 C   0  0  0  0  0  0  0  0  0  0  0  0
   -2.9240   -2.6686   -0.9122 O   0  0  0  0  0  0  0  0  0  0  0  0
   -3.0556   -0.4476   -0.1787 C   0  0  0  0  0  0  0  0  0  0  0  0
   -2.3308    0.6716    0.2355 C   0  0  0  0  0  0  0  0  0  0  0  0
   -0.9622    0.7079    0.2885 O   0  0  0  0  0  0  0  0  0  0  0  0
   -3.0034    1.8196    0.6510 C   0  0  0  0  0  0  0  0  0  0  0  0
   -4.3952    1.8512    0.6179 C   0  0  0  0  0  0  0  0  0  0  0  0
   -5.1291    0.7498    0.1858 C   0  0  0  0  0  0  0  0  0  0  0  0
   -4.4541   -0.4031   -0.2082 C   0  0  0  0  0  0  0  0  0  0  0  0
   -5.2257   -1.4620   -0.6049 O   0  0  0  0  0  0  0  0  0  0  0  0
   -5.0121    2.9980    1.0227 O   0  0  0  0  0  0  0  0  0  0  0  0
    5.7077    1.1713    1.5092 H   0  0  0  0  0  0  0  0  0  0  0  0
    5.7667   -0.6167    1.7677 H   0  0  0  0  0  0  0  0  0  0  0  0
    7.0650    0.2146    0.9024 H   0  0  0  0  0  0  0  0  0  0  0  0
    3.5585    0.2375    1.9468 H   0  0  0  0  0  0  0  0  0  0  0  0
    1.1386    0.1423    1.6966 H   0  0  0  0  0  0  0  0  0  0  0  0
    1.5817   -0.4142   -2.5667 H   0  0  0  0  0  0  0  0  0  0  0  0
    5.0731   -0.2772   -2.2167 H   0  0  0  0  0  0  0  0  0  0  0  0
   -0.5967    0.0966   -1.6381 H   0  0  0  0  0  0  0  0  0  0  0  0
   -0.6070   -1.9684    0.6700 H   0  0  0  0  0  0  0  0  0  0  0  0
   -0.3650   -2.3432   -1.0573 H   0  0  0  0  0  0  0  0  0  0  0  0
   -2.4481    2.6902    0.9892 H   0  0  0  0  0  0  0  0  0  0  0  0
   -6.2140    0.7661    0.1575 H   0  0  0  0  0  0  0  0  0  0  0  0
   -4.6268   -2.2088   -0.8354 H   0  0  0  0  0  0  0  0  0  0  0  0
   -5.9743    2.8807    0.9477 H   0  0  0  0  0  0  0  0  0  0  0  0
  1  2  1  0
  2  3  1  0
  3  4  2  0
  4  5  1  0
  5  6  2  0
  6  7  1  0
  7  8  2  0
  8  9  1  0
  6 10  1  0
 10 11  1  0
 11 12  1  0
 12 13  2  0
 12 14  1  0
 14 15  2  0
 15 16  1  0
 15 17  1  0
 17 18  2  0
 18 19  1  0
 19 20  2  0
 20 21  1  0
 18 22  1  0
  8  3  1  0
 16 10  1  0
 20 14  1  0
  1 23  1  0
  1 24  1  0
  1 25  1  0
  4 26  1  0
  5 27  1  0
  7 28  1  0
  9 29  1  0
 10 30  1  0
 11 31  1  0
 11 32  1  0
 17 33  1  0
 19 34  1  0
 21 35  1  0
 22 36  1  0
M  END
