
     RDKit          3D

 54 57  0  0  0  0  0  0  0  0999 V2000
   -5.1856    5.2188    0.8762 O   0  0  0  0  0  0  0  0  0  0  0  0
   -4.0676    4.5328    0.5056 C   0  0  0  0  0  0  0  0  0  0  0  0
   -3.0397    5.1509   -0.1992 C   0  0  0  0  0  0  0  0  0  0  0  0
   -1.9130    4.4089   -0.5457 C   0  0  0  0  0  0  0  0  0  0  0  0
   -0.9286    5.0758   -1.2234 O   0  0  0  0  0  0  0  0  0  0  0  0
   -1.8203    3.0565   -0.1949 C   0  0  0  0  0  0  0  0  0  0  0  0
   -2.8685    2.4430    0.4912 C   0  0  0  0  0  0  0  0  0  0  0  0
   -3.9886    3.1881    0.8571 C   0  0  0  0  0  0  0  0  0  0  0  0
   -2.8618    1.1299    0.8730 O   0  0  0  0  0  0  0  0  0  0  0  0
   -2.0093    0.2954    0.0720 C   0  0  0  0  0  0  0  0  0  0  0  0
   -0.5761    0.8419    0.0293 C   0  0  0  0  0  0  0  0  0  0  0  0
   -0.6196    2.2619   -0.5025 C   0  0  0  0  0  0  0  0  0  0  0  0
    0.3073    2.7762   -1.1312 O   0  0  0  0  0  0  0  0  0  0  0  0
    0.2179    0.0944   -0.8952 O   0  0  0  0  0  0  0  0  0  0  0  0
    1.3845   -0.5040   -0.3301 C   0  0  0  0  0  0  0  0  0  0  0  0
    1.7673   -1.5609   -1.2137 O   0  0  0  0  0  0  0  0  0  0  0  0
    2.9327   -2.2652   -0.7712 C   0  0  0  0  0  0  0  0  0  0  0  0
    3.1809   -3.4028   -1.7557 C   0  0  0  0  0  0  0  0  0  0  0  0
    4.1418   -1.3238   -0.6819 C   0  0  0  0  0  0  0  0  0  0  0  0
    3.8101   -0.1426    0.2372 C   0  0  0  0  0  0  0  0  0  0  0  0
    2.5121    0.5419   -0.1813 C   0  0  0  0  0  0  0  0  0  0  0  0
    2.7605    1.2389   -1.4187 O   0  0  0  0  0  0  0  0  0  0  0  0
    4.8983    0.7955    0.1943 O   0  0  0  0  0  0  0  0  0  0  0  0
    5.2838   -2.0077   -0.1569 O   0  0  0  0  0  0  0  0  0  0  0  0
   -2.0172   -1.1144    0.6585 C   0  0  0  0  0  0  0  0  0  0  0  0
   -2.2593   -1.3483    2.0258 C   0  0  0  0  0  0  0  0  0  0  0  0
   -2.2081   -2.6424    2.5501 C   0  0  0  0  0  0  0  0  0  0  0  0
   -1.9025   -3.7031    1.7122 C   0  0  0  0  0  0  0  0  0  0  0  0
   -1.6533   -3.4922    0.3606 C   0  0  0  0  0  0  0  0  0  0  0  0
   -1.7171   -2.2104   -0.1741 C   0  0  0  0  0  0  0  0  0  0  0  0
   -1.3316   -4.5778   -0.4056 O   0  0  0  0  0  0  0  0  0  0  0  0
   -1.8372   -4.9642    2.2297 O   0  0  0  0  0  0  0  0  0  0  0  0
   -5.1074    6.1398    0.5735 H   0  0  0  0  0  0  0  0  0  0  0  0
   -3.0931    6.1990   -0.4779 H   0  0  0  0  0  0  0  0  0  0  0  0
   -0.1967    4.4471   -1.4132 H   0  0  0  0  0  0  0  0  0  0  0  0
   -4.8036    2.7237    1.4062 H   0  0  0  0  0  0  0  0  0  0  0  0
   -2.4435    0.2367   -0.9370 H   0  0  0  0  0  0  0  0  0  0  0  0
   -0.1295    0.8826    1.0317 H   0  0  0  0  0  0  0  0  0  0  0  0
    1.1386   -0.9532    0.6407 H   0  0  0  0  0  0  0  0  0  0  0  0
    2.7274   -2.7141    0.2098 H   0  0  0  0  0  0  0  0  0  0  0  0
    3.3613   -3.0145   -2.7643 H   0  0  0  0  0  0  0  0  0  0  0  0
    2.2977   -4.0473   -1.8219 H   0  0  0  0  0  0  0  0  0  0  0  0
    4.0357   -4.0163   -1.4571 H   0  0  0  0  0  0  0  0  0  0  0  0
    4.4150   -0.9527   -1.6775 H   0  0  0  0  0  0  0  0  0  0  0  0
    3.7380   -0.4924    1.2740 H   0  0  0  0  0  0  0  0  0  0  0  0
    2.2414    1.3153    0.5453 H   0  0  0  0  0  0  0  0  0  0  0  0
    1.8918    1.6053   -1.6961 H   0  0  0  0  0  0  0  0  0  0  0  0
    4.7248    1.3442   -0.6009 H   0  0  0  0  0  0  0  0  0  0  0  0
    5.9398   -1.3071    0.0341 H   0  0  0  0  0  0  0  0  0  0  0  0
   -2.4941   -0.5255    2.6988 H   0  0  0  0  0  0  0  0  0  0  0  0
   -2.4017   -2.8203    3.6038 H   0  0  0  0  0  0  0  0  0  0  0  0
   -1.5097   -2.0469   -1.2293 H   0  0  0  0  0  0  0  0  0  0  0  0
   -1.1042   -4.2617   -1.2979 H   0  0  0  0  0  0  0  0  0  0  0  0
   -1.6199   -5.5325    1.4640 H   0  0  0  0  0  0  0  0  0  0  0  0
  1  2  1  0
  2  3  2  0
  3  4  1  0
  4  5  1  0
  4  6  2  0
  6  7  1  0
  7  8  2  0
  7  9  1  0
  9 10  1  0
 10 11  1  0
 11 12  1  0
 12 13  2  0
 11 14  1  0
 14 15  1  0
 15 16  1  0
 16 17  1  0
 17 18  1  0
 17 19  1  0
 19 20  1  0
 20 21  1  0
 21 22  1  0
 20 23  1  0
 19 24  1  0
 10 25  1  0
 25 26  2  0
 26 27  1  0
 27 28  2  0
 28 29  1  0
 29 30  2  0
 29 31  1  0
 28 32  1  0
  8  2  1  0
 21 15  1  0
 30 25  1  0
 12  6  1  0
  1 33  1  0
  3 34  1  0
  5 35  1  0
  8 36  1  0
 10 37  1  0
 11 38  1  0
 15 39  1  0
 17 40  1  0
 18 41  1  0
 18 42  1  0
 18 43  1  0
 19 44  1  0
 20 45  1  0
 21 46  1  0
 22 47  1  0
 23 48  1  0
 24 49  1  0
 26 50  1  0
 27 51  1  0
 30 52  1  0
 31 53  1  0
 32 54  1  0
M  END
