
     RDKit          3D

 21 21  0  0  0  0  0  0  0  0999 V2000
    3.2579   -1.5313   -0.0582 N   0  0  0  0  0  0  0  0  0  0  0  0
    2.4690   -0.4801    0.3166 C   0  0  0  0  0  0  0  0  0  0  0  0
    2.9677    0.4647    0.9084 O   0  0  0  0  0  0  0  0  0  0  0  0
    1.1648   -0.6775   -0.0495 N   0  0  0  0  0  0  0  0  0  0  0  0
    0.0765    0.2125    0.0916 C   0  0  0  0  0  0  0  0  0  0  0  0
    0.2499    1.5398    0.5024 C   0  0  0  0  0  0  0  0  0  0  0  0
   -0.8416    2.4033    0.6249 C   0  0  0  0  0  0  0  0  0  0  0  0
   -2.1229    1.9524    0.3342 C   0  0  0  0  0  0  0  0  0  0  0  0
   -2.3138    0.6368   -0.0819 C   0  0  0  0  0  0  0  0  0  0  0  0
   -1.2252   -0.2451   -0.2107 C   0  0  0  0  0  0  0  0  0  0  0  0
   -1.4993   -1.6539   -0.6640 C   0  0  0  0  0  0  0  0  0  0  0  0
    3.0948   -1.8955   -0.9858 H   0  0  0  0  0  0  0  0  0  0  0  0
    4.2363   -1.3449    0.1307 H   0  0  0  0  0  0  0  0  0  0  0  0
    0.9531   -1.6241   -0.3207 H   0  0  0  0  0  0  0  0  0  0  0  0
    1.2329    1.9390    0.7335 H   0  0  0  0  0  0  0  0  0  0  0  0
   -0.6831    3.4288    0.9485 H   0  0  0  0  0  0  0  0  0  0  0  0
   -2.9720    2.6236    0.4305 H   0  0  0  0  0  0  0  0  0  0  0  0
   -3.3242    0.3011   -0.3061 H   0  0  0  0  0  0  0  0  0  0  0  0
   -1.1940   -2.3674    0.1081 H   0  0  0  0  0  0  0  0  0  0  0  0
   -2.5649   -1.8169   -0.8581 H   0  0  0  0  0  0  0  0  0  0  0  0
   -0.9621   -1.8653   -1.5943 H   0  0  0  0  0  0  0  0  0  0  0  0
  1  2  1  0
  2  3  2  0
  2  4  1  0
  4  5  1  0
  5  6  2  0
  6  7  1  0
  7  8  2  0
  8  9  1  0
  9 10  2  0
 10 11  1  0
 10  5  1  0
  1 12  1  0
  1 13  1  0
  4 14  1  0
  6 15  1  0
  7 16  1  0
  8 17  1  0
  9 18  1  0
 11 19  1  0
 11 20  1  0
 11 21  1  0
M  END
