
     RDKit          3D

 21 21  0  0  0  0  0  0  0  0999 V2000
    3.9679   -0.6996    0.3891 N   0  0  0  0  0  0  0  0  0  0  0  0
    2.9231    0.1778    0.3169 C   0  0  0  0  0  0  0  0  0  0  0  0
    3.1373    1.3780    0.3918 O   0  0  0  0  0  0  0  0  0  0  0  0
    1.7282   -0.4732    0.1707 N   0  0  0  0  0  0  0  0  0  0  0  0
    0.4535    0.0980   -0.0084 C   0  0  0  0  0  0  0  0  0  0  0  0
    0.2375    1.4616   -0.2075 C   0  0  0  0  0  0  0  0  0  0  0  0
   -1.0591    1.9532   -0.3802 C   0  0  0  0  0  0  0  0  0  0  0  0
   -2.1494    1.0848   -0.3633 C   0  0  0  0  0  0  0  0  0  0  0  0
   -1.9522   -0.2874   -0.1851 C   0  0  0  0  0  0  0  0  0  0  0  0
   -0.6480   -0.7698    0.0025 C   0  0  0  0  0  0  0  0  0  0  0  0
   -3.1236   -1.2228   -0.1329 C   0  0  0  0  0  0  0  0  0  0  0  0
    4.8583   -0.2154    0.4037 H   0  0  0  0  0  0  0  0  0  0  0  0
    3.9440   -1.4698   -0.2634 H   0  0  0  0  0  0  0  0  0  0  0  0
    1.7619   -1.4664    0.3431 H   0  0  0  0  0  0  0  0  0  0  0  0
    1.0594    2.1705   -0.2318 H   0  0  0  0  0  0  0  0  0  0  0  0
   -1.2146    3.0193   -0.5255 H   0  0  0  0  0  0  0  0  0  0  0  0
   -3.1518    1.4869   -0.4912 H   0  0  0  0  0  0  0  0  0  0  0  0
   -0.5000   -1.8354    0.1601 H   0  0  0  0  0  0  0  0  0  0  0  0
   -3.9491   -0.8509   -0.7488 H   0  0  0  0  0  0  0  0  0  0  0  0
   -2.8511   -2.2109   -0.5183 H   0  0  0  0  0  0  0  0  0  0  0  0
   -3.4722   -1.3284    0.8990 H   0  0  0  0  0  0  0  0  0  0  0  0
  1  2  1  0
  2  3  2  0
  2  4  1  0
  4  5  1  0
  5  6  2  0
  6  7  1  0
  7  8  2  0
  8  9  1  0
  9 10  2  0
  9 11  1  0
 10  5  1  0
  1 12  1  0
  1 13  1  0
  4 14  1  0
  6 15  1  0
  7 16  1  0
  8 17  1  0
 10 18  1  0
 11 19  1  0
 11 20  1  0
 11 21  1  0
M  END
