
     RDKit          3D

 21 21  0  0  0  0  0  0  0  0999 V2000
    4.2259   -0.0317    0.3655 N   0  0  0  0  0  0  0  0  0  0  0  0
    2.9497   -0.4463    0.6227 C   0  0  0  0  0  0  0  0  0  0  0  0
    2.7646   -1.4273    1.3265 O   0  0  0  0  0  0  0  0  0  0  0  0
    2.0262    0.3618    0.0170 N   0  0  0  0  0  0  0  0  0  0  0  0
    0.6269    0.2056   -0.0004 C   0  0  0  0  0  0  0  0  0  0  0  0
   -0.1285    1.2355   -0.5729 C   0  0  0  0  0  0  0  0  0  0  0  0
   -1.5231    1.1493   -0.6344 C   0  0  0  0  0  0  0  0  0  0  0  0
   -2.1864    0.0334   -0.1166 C   0  0  0  0  0  0  0  0  0  0  0  0
   -1.4299   -1.0037    0.4379 C   0  0  0  0  0  0  0  0  0  0  0  0
   -0.0342   -0.9166    0.4987 C   0  0  0  0  0  0  0  0  0  0  0  0
   -3.6789   -0.0788   -0.2088 C   0  0  0  0  0  0  0  0  0  0  0  0
    4.4167    0.2472   -0.5860 H   0  0  0  0  0  0  0  0  0  0  0  0
    4.9090   -0.6826    0.7361 H   0  0  0  0  0  0  0  0  0  0  0  0
    2.3916    1.2317   -0.3395 H   0  0  0  0  0  0  0  0  0  0  0  0
    0.3545    2.1197   -0.9797 H   0  0  0  0  0  0  0  0  0  0  0  0
   -2.0870    1.9611   -1.0883 H   0  0  0  0  0  0  0  0  0  0  0  0
   -1.9187   -1.8927    0.8307 H   0  0  0  0  0  0  0  0  0  0  0  0
    0.5090   -1.7473    0.9390 H   0  0  0  0  0  0  0  0  0  0  0  0
   -4.0789   -0.6637    0.6261 H   0  0  0  0  0  0  0  0  0  0  0  0
   -3.9603   -0.5644   -1.1483 H   0  0  0  0  0  0  0  0  0  0  0  0
   -4.1483    0.9096   -0.1667 H   0  0  0  0  0  0  0  0  0  0  0  0
  1  2  1  0
  2  3  2  0
  2  4  1  0
  4  5  1  0
  5  6  2  0
  6  7  1  0
  7  8  2  0
  8  9  1  0
  9 10  2  0
  8 11  1  0
 10  5  1  0
  1 12  1  0
  1 13  1  0
  4 14  1  0
  6 15  1  0
  7 16  1  0
  9 17  1  0
 10 18  1  0
 11 19  1  0
 11 20  1  0
 11 21  1  0
M  END
