
     RDKit          3D

 28 28  0  0  0  0  0  0  0  0999 V2000
    5.1381    0.7787    0.7858 C   0  0  0  0  0  0  0  0  0  0  0  0
    4.1622   -0.0926    0.0156 C   0  0  0  0  0  0  0  0  0  0  0  0
    2.7123    0.2451    0.3502 C   0  0  0  0  0  0  0  0  0  0  0  0
    1.8746   -0.6202   -0.4169 O   0  0  0  0  0  0  0  0  0  0  0  0
    0.5243   -0.4689   -0.2686 C   0  0  0  0  0  0  0  0  0  0  0  0
   -0.2493   -1.3243   -1.0535 C   0  0  0  0  0  0  0  0  0  0  0  0
   -1.6456   -1.2747   -0.9993 C   0  0  0  0  0  0  0  0  0  0  0  0
   -2.2907   -0.3635   -0.1574 C   0  0  0  0  0  0  0  0  0  0  0  0
   -1.5153    0.4875    0.6310 C   0  0  0  0  0  0  0  0  0  0  0  0
   -0.1150    0.4371    0.5752 C   0  0  0  0  0  0  0  0  0  0  0  0
   -3.6982   -0.3745   -0.1473 N   0  0  0  0  0  0  0  0  0  0  0  0
   -4.5360    0.4933    0.4992 C   0  0  0  0  0  0  0  0  0  0  0  0
   -4.2530    1.4904    1.1456 O   0  0  0  0  0  0  0  0  0  0  0  0
   -5.8455    0.1350    0.3488 N   0  0  0  0  0  0  0  0  0  0  0  0
    5.0148    0.6459    1.8654 H   0  0  0  0  0  0  0  0  0  0  0  0
    4.9888    1.8373    0.5504 H   0  0  0  0  0  0  0  0  0  0  0  0
    6.1682    0.5151    0.5267 H   0  0  0  0  0  0  0  0  0  0  0  0
    4.3535   -1.1498    0.2356 H   0  0  0  0  0  0  0  0  0  0  0  0
    4.3279    0.0259   -1.0620 H   0  0  0  0  0  0  0  0  0  0  0  0
    2.5121    1.2915    0.0897 H   0  0  0  0  0  0  0  0  0  0  0  0
    2.5383    0.0846    1.4210 H   0  0  0  0  0  0  0  0  0  0  0  0
    0.2396   -2.0358   -1.7145 H   0  0  0  0  0  0  0  0  0  0  0  0
   -2.2135   -1.9564   -1.6260 H   0  0  0  0  0  0  0  0  0  0  0  0
   -1.9706    1.2057    1.3066 H   0  0  0  0  0  0  0  0  0  0  0  0
    0.4392    1.1224    1.2078 H   0  0  0  0  0  0  0  0  0  0  0  0
   -4.1537   -1.0074   -0.7875 H   0  0  0  0  0  0  0  0  0  0  0  0
   -6.4582    0.7226    0.9027 H   0  0  0  0  0  0  0  0  0  0  0  0
   -6.0492   -0.8499    0.4386 H   0  0  0  0  0  0  0  0  0  0  0  0
  1  2  1  0
  2  3  1  0
  3  4  1  0
  4  5  1  0
  5  6  2  0
  6  7  1  0
  7  8  2  0
  8  9  1  0
  9 10  2  0
  8 11  1  0
 11 12  1  0
 12 13  2  0
 12 14  1  0
 10  5  1  0
  1 15  1  0
  1 16  1  0
  1 17  1  0
  2 18  1  0
  2 19  1  0
  3 20  1  0
  3 21  1  0
  6 22  1  0
  7 23  1  0
  9 24  1  0
 10 25  1  0
 11 26  1  0
 14 27  1  0
 14 28  1  0
M  END
