
     RDKit          3D

 29 29  0  0  0  0  0  0  0  0999 V2000
    0.7344   -0.1988   -1.6832 O   0  0  0  0  0  0  0  0  0  0  0  0
    0.8351   -0.6048   -0.5337 C   0  0  0  0  0  0  0  0  0  0  0  0
   -0.1701   -0.7004    0.4026 N   0  0  0  0  0  0  0  0  0  0  0  0
   -1.5090   -0.2843    0.2743 C   0  0  0  0  0  0  0  0  0  0  0  0
   -2.3823   -0.6054    1.3235 C   0  0  0  0  0  0  0  0  0  0  0  0
   -3.7276   -0.2239    1.2784 C   0  0  0  0  0  0  0  0  0  0  0  0
   -4.2042    0.4897    0.1733 C   0  0  0  0  0  0  0  0  0  0  0  0
   -3.3433    0.8213   -0.8778 C   0  0  0  0  0  0  0  0  0  0  0  0
   -1.9988    0.4337   -0.8209 C   0  0  0  0  0  0  0  0  0  0  0  0
   -5.6143    0.8944    0.1190 N   0  0  0  0  0  4  0  0  0  0  0  0
   -5.9944    1.5346   -0.8715 O   0  0  0  0  0  1  0  0  0  0  0  0
   -6.3422    0.5726    1.0694 O   0  0  0  0  0  0  0  0  0  0  0  0
    2.0314   -1.0550   -0.0113 N   0  0  0  0  0  0  0  0  0  0  0  0
    3.2542   -0.9927   -0.7944 C   0  0  0  0  0  0  0  0  0  0  0  0
    3.8463    0.4101   -0.8781 C   0  0  0  0  0  0  0  0  0  0  0  0
    4.3488    0.8663    0.4617 C   0  0  0  0  0  0  0  0  0  0  0  0
    4.0466    0.4115    1.5536 O   0  0  0  0  0  0  0  0  0  0  0  0
    5.1953    1.9091    0.3608 O   0  0  0  0  0  0  0  0  0  0  0  0
    0.0653   -1.2349    1.2254 H   0  0  0  0  0  0  0  0  0  0  0  0
   -2.0286   -1.1592    2.1903 H   0  0  0  0  0  0  0  0  0  0  0  0
   -4.3823   -0.4893    2.1060 H   0  0  0  0  0  0  0  0  0  0  0  0
   -3.6935    1.3773   -1.7453 H   0  0  0  0  0  0  0  0  0  0  0  0
   -1.3556    0.7126   -1.6512 H   0  0  0  0  0  0  0  0  0  0  0  0
    2.1568   -0.9249    0.9855 H   0  0  0  0  0  0  0  0  0  0  0  0
    3.9626   -1.6869   -0.3291 H   0  0  0  0  0  0  0  0  0  0  0  0
    3.0350   -1.3586   -1.8037 H   0  0  0  0  0  0  0  0  0  0  0  0
    4.6938    0.3891   -1.5722 H   0  0  0  0  0  0  0  0  0  0  0  0
    3.1109    1.1368   -1.2373 H   0  0  0  0  0  0  0  0  0  0  0  0
    5.4298    2.1330    1.2857 H   0  0  0  0  0  0  0  0  0  0  0  0
  1  2  2  0
  2  3  1  0
  3  4  1  0
  4  5  2  0
  5  6  1  0
  6  7  2  0
  7  8  1  0
  8  9  2  0
  7 10  1  0
 10 11  1  0
 10 12  2  0
  2 13  1  0
 13 14  1  0
 14 15  1  0
 15 16  1  0
 16 17  2  0
 16 18  1  0
  9  4  1  0
  3 19  1  0
  5 20  1  0
  6 21  1  0
  8 22  1  0
  9 23  1  0
 13 24  1  0
 14 25  1  0
 14 26  1  0
 15 27  1  0
 15 28  1  0
 18 29  1  0
M  CHG  2  10   1  11  -1
M  END
