
     RDKit          3D

 29 29  0  0  0  0  0  0  0  0999 V2000
   -4.8392    0.0711    0.4605 C   0  0  0  0  0  0  0  0  0  0  0  0
   -4.4040   -0.6601   -0.8014 C   0  0  0  0  0  0  0  0  0  0  0  0
   -3.0666   -0.1591   -1.3367 C   0  0  0  0  0  0  0  0  0  0  0  0
   -1.9695   -0.4689   -0.4390 N   0  0  0  0  0  0  0  0  0  0  0  0
   -0.7317    0.1086   -0.6630 C   0  0  0  0  0  0  0  0  0  0  0  0
   -0.5296    0.9160   -1.5587 O   0  0  0  0  0  0  0  0  0  0  0  0
    0.1825   -0.3467    0.2630 N   0  0  0  0  0  0  0  0  0  0  0  0
    1.5598   -0.0603    0.3205 C   0  0  0  0  0  0  0  0  0  0  0  0
    2.2581   -0.4936    1.4566 C   0  0  0  0  0  0  0  0  0  0  0  0
    3.6306   -0.2559    1.5876 C   0  0  0  0  0  0  0  0  0  0  0  0
    4.3132    0.4185    0.5691 C   0  0  0  0  0  0  0  0  0  0  0  0
    3.6305    0.8501   -0.5727 C   0  0  0  0  0  0  0  0  0  0  0  0
    2.2568    0.6062   -0.6920 C   0  0  0  0  0  0  0  0  0  0  0  0
    5.7536    0.6704    0.6989 N   0  0  0  0  0  4  0  0  0  0  0  0
    6.3157    0.2758    1.7309 O   0  0  0  0  0  1  0  0  0  0  0  0
    6.3236    1.2601   -0.2298 O   0  0  0  0  0  0  0  0  0  0  0  0
   -4.1324   -0.0924    1.2800 H   0  0  0  0  0  0  0  0  0  0  0  0
   -4.9166    1.1484    0.2822 H   0  0  0  0  0  0  0  0  0  0  0  0
   -5.8200   -0.2898    0.7858 H   0  0  0  0  0  0  0  0  0  0  0  0
   -5.1702   -0.5181   -1.5722 H   0  0  0  0  0  0  0  0  0  0  0  0
   -4.3482   -1.7352   -0.5941 H   0  0  0  0  0  0  0  0  0  0  0  0
   -3.0977    0.9233   -1.5066 H   0  0  0  0  0  0  0  0  0  0  0  0
   -2.8460   -0.6391   -2.2970 H   0  0  0  0  0  0  0  0  0  0  0  0
   -1.9191   -1.4282   -0.1292 H   0  0  0  0  0  0  0  0  0  0  0  0
   -0.2237   -0.8032    1.0660 H   0  0  0  0  0  0  0  0  0  0  0  0
    1.7435   -1.0189    2.2580 H   0  0  0  0  0  0  0  0  0  0  0  0
    4.1458   -0.6003    2.4820 H   0  0  0  0  0  0  0  0  0  0  0  0
    4.1431    1.3739   -1.3773 H   0  0  0  0  0  0  0  0  0  0  0  0
    1.7575    0.9473   -1.5952 H   0  0  0  0  0  0  0  0  0  0  0  0
  1  2  1  0
  2  3  1  0
  3  4  1  0
  4  5  1  0
  5  6  2  0
  5  7  1  0
  7  8  1  0
  8  9  2  0
  9 10  1  0
 10 11  2  0
 11 12  1  0
 12 13  2  0
 11 14  1  0
 14 15  1  0
 14 16  2  0
 13  8  1  0
  1 17  1  0
  1 18  1  0
  1 19  1  0
  2 20  1  0
  2 21  1  0
  3 22  1  0
  3 23  1  0
  4 24  1  0
  7 25  1  0
  9 26  1  0
 10 27  1  0
 12 28  1  0
 13 29  1  0
M  CHG  2  14   1  15  -1
M  END
