
     RDKit          3D

 20 20  0  0  0  0  0  0  0  0999 V2000
    4.0004   -0.5722   -0.4847 N   0  0  0  0  0  0  0  0  0  0  0  0
    2.8025   -0.0112   -0.8227 C   0  0  0  0  0  0  0  0  0  0  0  0
    2.7479    0.7992   -1.7348 O   0  0  0  0  0  0  0  0  0  0  0  0
    1.7873   -0.4676   -0.0255 N   0  0  0  0  0  0  0  0  0  0  0  0
    0.4172   -0.1604   -0.1212 C   0  0  0  0  0  0  0  0  0  0  0  0
   -0.1416    0.5680   -1.1761 C   0  0  0  0  0  0  0  0  0  0  0  0
   -1.5164    0.8318   -1.2123 C   0  0  0  0  0  0  0  0  0  0  0  0
   -2.3390    0.3588   -0.1848 C   0  0  0  0  0  0  0  0  0  0  0  0
   -1.7947   -0.3760    0.8745 C   0  0  0  0  0  0  0  0  0  0  0  0
   -0.4197   -0.6331    0.8995 C   0  0  0  0  0  0  0  0  0  0  0  0
   -3.7811    0.6315   -0.2183 N   0  0  0  0  0  4  0  0  0  0  0  0
   -4.4703    0.1975    0.7162 O   0  0  0  0  0  1  0  0  0  0  0  0
   -4.2253    1.2770   -1.1782 O   0  0  0  0  0  0  0  0  0  0  0  0
    4.7347   -0.3012   -1.1294 H   0  0  0  0  0  0  0  0  0  0  0  0
    3.9907   -1.5627   -0.2881 H   0  0  0  0  0  0  0  0  0  0  0  0
    2.0909   -0.9696    0.7960 H   0  0  0  0  0  0  0  0  0  0  0  0
    0.4693    0.9445   -1.9924 H   0  0  0  0  0  0  0  0  0  0  0  0
   -1.9201    1.4035   -2.0457 H   0  0  0  0  0  0  0  0  0  0  0  0
   -2.4196   -0.7525    1.6818 H   0  0  0  0  0  0  0  0  0  0  0  0
   -0.0133   -1.2053    1.7305 H   0  0  0  0  0  0  0  0  0  0  0  0
  1  2  1  0
  2  3  2  0
  2  4  1  0
  4  5  1  0
  5  6  2  0
  6  7  1  0
  7  8  2  0
  8  9  1  0
  9 10  2  0
  8 11  1  0
 11 12  1  0
 11 13  2  0
 10  5  1  0
  1 14  1  0
  1 15  1  0
  4 16  1  0
  6 17  1  0
  7 18  1  0
  9 19  1  0
 10 20  1  0
M  CHG  2  11   1  12  -1
M  END
