
     RDKit          3D

 73 77  0  0  0  0  0  0  0  0999 V2000
    0.4522   -5.2841    1.5098 O   0  0  0  0  0  0  0  0  0  0  0  0
    0.5103   -4.9709    0.1141 C   0  0  0  0  0  0  0  0  0  0  0  0
   -0.5413   -3.9126   -0.2471 C   0  0  0  0  0  0  0  0  0  0  0  0
   -0.3324   -2.7897    0.6346 O   0  0  0  0  0  0  0  0  0  0  0  0
   -1.2360   -1.7036    0.3753 C   0  0  0  0  0  0  0  0  0  0  0  0
   -1.1135   -1.2147   -0.9675 O   0  0  0  0  0  0  0  0  0  0  0  0
   -0.0956   -0.3451   -1.2388 C   0  0  0  0  0  0  0  0  0  0  0  0
   -0.2772    0.4188   -2.3954 C   0  0  0  0  0  0  0  0  0  0  0  0
    0.6625    1.3789   -2.7585 C   0  0  0  0  0  0  0  0  0  0  0  0
    0.3913    2.1171   -3.8792 O   0  0  0  0  0  0  0  0  0  0  0  0
    1.8057    1.5652   -1.9791 C   0  0  0  0  0  0  0  0  0  0  0  0
    2.0155    0.7672   -0.8532 C   0  0  0  0  0  0  0  0  0  0  0  0
    1.0610   -0.1798   -0.4746 C   0  0  0  0  0  0  0  0  0  0  0  0
    3.1194    0.8752   -0.0477 O   0  0  0  0  0  0  0  0  0  0  0  0
    4.2526    1.4486   -0.7199 C   0  0  0  0  0  0  0  0  0  0  0  0
    3.9067    2.8124   -1.3021 C   0  0  0  0  0  0  0  0  0  0  0  0
    2.7814    2.6276   -2.2793 C   0  0  0  0  0  0  0  0  0  0  0  0
    2.6138    3.3535   -3.2558 O   0  0  0  0  0  0  0  0  0  0  0  0
    5.3871    1.5579    0.2803 C   0  0  0  0  0  0  0  0  0  0  0  0
    5.2023    2.2004    1.5169 C   0  0  0  0  0  0  0  0  0  0  0  0
    6.2590    2.3202    2.4207 C   0  0  0  0  0  0  0  0  0  0  0  0
    7.5040    1.7963    2.0988 C   0  0  0  0  0  0  0  0  0  0  0  0
    7.7111    1.1502    0.8843 C   0  0  0  0  0  0  0  0  0  0  0  0
    6.6538    1.0330   -0.0235 C   0  0  0  0  0  0  0  0  0  0  0  0
    8.5061    1.9352    3.0115 O   0  0  0  0  0  0  0  0  0  0  0  0
   -2.6922   -2.1654    0.6206 C   0  0  0  0  0  0  0  0  0  0  0  0
   -2.9935   -3.3434   -0.3104 C   0  0  0  0  0  0  0  0  0  0  0  0
   -1.9678   -4.4649   -0.1200 C   0  0  0  0  0  0  0  0  0  0  0  0
   -2.2074   -5.4768   -1.1045 O   0  0  0  0  0  0  0  0  0  0  0  0
   -4.3025   -3.8757   -0.0325 O   0  0  0  0  0  0  0  0  0  0  0  0
   -3.6822   -1.1521    0.3533 O   0  0  0  0  0  0  0  0  0  0  0  0
   -3.9172   -0.2778    1.4637 C   0  0  0  0  0  0  0  0  0  0  0  0
   -2.8429    0.6346    1.6617 O   0  0  0  0  0  0  0  0  0  0  0  0
   -2.7340    1.6233    0.6258 C   0  0  0  0  0  0  0  0  0  0  0  0
   -1.5215    2.4855    0.9655 C   0  0  0  0  0  0  0  0  0  0  0  0
   -4.0144    2.4735    0.4884 C   0  0  0  0  0  0  0  0  0  0  0  0
   -5.2281    1.5711    0.2597 C   0  0  0  0  0  0  0  0  0  0  0  0
   -5.2717    0.4504    1.3064 C   0  0  0  0  0  0  0  0  0  0  0  0
   -6.3117   -0.4762    0.9520 O   0  0  0  0  0  0  0  0  0  0  0  0
   -5.2114    1.0047   -1.0585 O   0  0  0  0  0  0  0  0  0  0  0  0
   -4.2212    3.2580    1.6689 O   0  0  0  0  0  0  0  0  0  0  0  0
    0.4916   -4.4255    1.9703 H   0  0  0  0  0  0  0  0  0  0  0  0
    1.5147   -4.5802   -0.0824 H   0  0  0  0  0  0  0  0  0  0  0  0
    0.3798   -5.8931   -0.4596 H   0  0  0  0  0  0  0  0  0  0  0  0
   -0.3507   -3.6063   -1.2850 H   0  0  0  0  0  0  0  0  0  0  0  0
   -1.0053   -0.9047    1.0866 H   0  0  0  0  0  0  0  0  0  0  0  0
   -1.1697    0.2826   -3.0033 H   0  0  0  0  0  0  0  0  0  0  0  0
    1.1071    2.7824   -3.9896 H   0  0  0  0  0  0  0  0  0  0  0  0
    1.2482   -0.7751    0.4158 H   0  0  0  0  0  0  0  0  0  0  0  0
    4.5499    0.7573   -1.5219 H   0  0  0  0  0  0  0  0  0  0  0  0
    3.5672    3.5179   -0.5360 H   0  0  0  0  0  0  0  0  0  0  0  0
    4.7689    3.2407   -1.8247 H   0  0  0  0  0  0  0  0  0  0  0  0
    4.2291    2.6068    1.7856 H   0  0  0  0  0  0  0  0  0  0  0  0
    6.1097    2.8208    3.3737 H   0  0  0  0  0  0  0  0  0  0  0  0
    8.6804    0.7369    0.6250 H   0  0  0  0  0  0  0  0  0  0  0  0
    6.8283    0.5249   -0.9706 H   0  0  0  0  0  0  0  0  0  0  0  0
    9.3084    1.5148    2.6624 H   0  0  0  0  0  0  0  0  0  0  0  0
   -2.8045   -2.5240    1.6521 H   0  0  0  0  0  0  0  0  0  0  0  0
   -3.0242   -3.0218   -1.3586 H   0  0  0  0  0  0  0  0  0  0  0  0
   -2.1198   -4.9274    0.8644 H   0  0  0  0  0  0  0  0  0  0  0  0
   -3.1625   -5.6768   -1.0393 H   0  0  0  0  0  0  0  0  0  0  0  0
   -4.9064   -3.1110   -0.0779 H   0  0  0  0  0  0  0  0  0  0  0  0
   -3.9992   -0.8954    2.3655 H   0  0  0  0  0  0  0  0  0  0  0  0
   -2.5406    1.1112   -0.3231 H   0  0  0  0  0  0  0  0  0  0  0  0
   -1.6318    2.9619    1.9460 H   0  0  0  0  0  0  0  0  0  0  0  0
   -1.3614    3.2610    0.2106 H   0  0  0  0  0  0  0  0  0  0  0  0
   -0.6198    1.8659    1.0268 H   0  0  0  0  0  0  0  0  0  0  0  0
   -3.8901    3.1647   -0.3543 H   0  0  0  0  0  0  0  0  0  0  0  0
   -6.1585    2.1479    0.3383 H   0  0  0  0  0  0  0  0  0  0  0  0
   -5.5321    0.8953    2.2746 H   0  0  0  0  0  0  0  0  0  0  0  0
   -6.1300   -0.6803    0.0110 H   0  0  0  0  0  0  0  0  0  0  0  0
   -5.5585    1.6739   -1.6730 H   0  0  0  0  0  0  0  0  0  0  0  0
   -4.8985    3.9287    1.4714 H   0  0  0  0  0  0  0  0  0  0  0  0
  1  2  1  0
  2  3  1  0
  3  4  1  0
  4  5  1  0
  5  6  1  0
  6  7  1  0
  7  8  2  0
  8  9  1  0
  9 10  1  0
  9 11  2  0
 11 12  1  0
 12 13  2  0
 12 14  1  0
 14 15  1  0
 15 16  1  0
 16 17  1  0
 17 18  2  0
 15 19  1  0
 19 20  2  0
 20 21  1  0
 21 22  2  0
 22 23  1  0
 23 24  2  0
 22 25  1  0
  5 26  1  0
 26 27  1  0
 27 28  1  0
 28 29  1  0
 27 30  1  0
 26 31  1  0
 31 32  1  0
 32 33  1  0
 33 34  1  0
 34 35  1  0
 34 36  1  0
 36 37  1  0
 37 38  1  0
 38 39  1  0
 37 40  1  0
 36 41  1  0
 28  3  1  0
 38 32  1  0
 13  7  1  0
 24 19  1  0
 17 11  1  0
  1 42  1  0
  2 43  1  0
  2 44  1  0
  3 45  1  0
  5 46  1  0
  8 47  1  0
 10 48  1  0
 13 49  1  0
 15 50  1  0
 16 51  1  0
 16 52  1  0
 20 53  1  0
 21 54  1  0
 23 55  1  0
 24 56  1  0
 25 57  1  0
 26 58  1  0
 27 59  1  0
 28 60  1  0
 29 61  1  0
 30 62  1  0
 32 63  1  0
 34 64  1  0
 35 65  1  0
 35 66  1  0
 35 67  1  0
 36 68  1  0
 37 69  1  0
 38 70  1  0
 39 71  1  0
 40 72  1  0
 41 73  1  0
M  END
