
     RDKit          3D

 32 32  0  0  0  0  0  0  0  0999 V2000
    4.9205   -0.8455   -2.8021 C   0  0  0  0  0  0  0  0  0  0  0  0
    4.1931   -1.6759   -1.8958 O   0  0  0  0  0  0  0  0  0  0  0  0
    3.6074   -1.0007   -0.8678 C   0  0  0  0  0  0  0  0  0  0  0  0
    3.6684    0.2104   -0.6950 O   0  0  0  0  0  0  0  0  0  0  0  0
    2.8470   -1.9636    0.0084 C   0  0  0  0  0  0  0  0  0  0  0  0
    2.5145   -1.3395    1.3593 C   0  0  0  0  0  0  0  0  0  0  0  0
    1.5655   -0.2428    1.2672 N   0  0  0  0  0  0  0  0  0  0  0  0
    0.2213   -0.4872    1.0680 C   0  0  0  0  0  0  0  0  0  0  0  0
   -0.2386   -1.6200    1.0276 O   0  0  0  0  0  0  0  0  0  0  0  0
   -0.4740    0.6948    0.9446 N   0  0  0  0  0  0  0  0  0  0  0  0
   -1.8447    0.8638    0.6720 C   0  0  0  0  0  0  0  0  0  0  0  0
   -2.3496    2.1714    0.7165 C   0  0  0  0  0  0  0  0  0  0  0  0
   -3.6993    2.4280    0.4523 C   0  0  0  0  0  0  0  0  0  0  0  0
   -4.5532    1.3654    0.1368 C   0  0  0  0  0  0  0  0  0  0  0  0
   -4.0623    0.0569    0.0839 C   0  0  0  0  0  0  0  0  0  0  0  0
   -2.7092   -0.1869    0.3503 C   0  0  0  0  0  0  0  0  0  0  0  0
   -5.9705    1.6266   -0.1425 N   0  0  0  0  0  4  0  0  0  0  0  0
   -6.6909    0.6600   -0.4294 O   0  0  0  0  0  1  0  0  0  0  0  0
   -6.3632    2.8005   -0.0763 O   0  0  0  0  0  0  0  0  0  0  0  0
    5.7397   -0.3380   -2.2833 H   0  0  0  0  0  0  0  0  0  0  0  0
    4.2526   -0.1198   -3.2767 H   0  0  0  0  0  0  0  0  0  0  0  0
    5.3464   -1.4849   -3.5802 H   0  0  0  0  0  0  0  0  0  0  0  0
    3.4781   -2.8431    0.1792 H   0  0  0  0  0  0  0  0  0  0  0  0
    1.9422   -2.2731   -0.5242 H   0  0  0  0  0  0  0  0  0  0  0  0
    3.4160   -0.9381    1.8350 H   0  0  0  0  0  0  0  0  0  0  0  0
    2.0935   -2.1036    2.0223 H   0  0  0  0  0  0  0  0  0  0  0  0
    1.9318    0.5980    0.8360 H   0  0  0  0  0  0  0  0  0  0  0  0
    0.0487    1.5224    1.1898 H   0  0  0  0  0  0  0  0  0  0  0  0
   -1.6998    3.0092    0.9596 H   0  0  0  0  0  0  0  0  0  0  0  0
   -4.0631    3.4525    0.4967 H   0  0  0  0  0  0  0  0  0  0  0  0
   -4.7092   -0.7831   -0.1613 H   0  0  0  0  0  0  0  0  0  0  0  0
   -2.3592   -1.2142    0.2950 H   0  0  0  0  0  0  0  0  0  0  0  0
  1  2  1  0
  2  3  1  0
  3  4  2  0
  3  5  1  0
  5  6  1  0
  6  7  1  0
  7  8  1  0
  8  9  2  0
  8 10  1  0
 10 11  1  0
 11 12  2  0
 12 13  1  0
 13 14  2  0
 14 15  1  0
 15 16  2  0
 14 17  1  0
 17 18  1  0
 17 19  2  0
 16 11  1  0
  1 20  1  0
  1 21  1  0
  1 22  1  0
  5 23  1  0
  5 24  1  0
  6 25  1  0
  6 26  1  0
  7 27  1  0
 10 28  1  0
 12 29  1  0
 13 30  1  0
 15 31  1  0
 16 32  1  0
M  CHG  2  17   1  18  -1
M  END
