
     RDKit          3D

 32 32  0  0  0  0  0  0  0  0999 V2000
    0.4033   -1.8717   -0.1069 O   0  0  0  0  0  0  0  0  0  0  0  0
    0.4347   -0.9131   -0.8661 C   0  0  0  0  0  0  0  0  0  0  0  0
   -0.5156    0.0772   -0.9830 N   0  0  0  0  0  0  0  0  0  0  0  0
   -1.6917    0.2406   -0.2273 C   0  0  0  0  0  0  0  0  0  0  0  0
   -2.0439   -0.5746    0.8527 C   0  0  0  0  0  0  0  0  0  0  0  0
   -3.2295   -0.3476    1.5627 C   0  0  0  0  0  0  0  0  0  0  0  0
   -4.0689    0.7069    1.1892 C   0  0  0  0  0  0  0  0  0  0  0  0
   -3.7284    1.5335    0.1130 C   0  0  0  0  0  0  0  0  0  0  0  0
   -2.5413    1.2963   -0.5883 C   0  0  0  0  0  0  0  0  0  0  0  0
   -5.3120    0.9501    1.9312 N   0  0  0  0  0  4  0  0  0  0  0  0
   -6.0269    1.8932    1.5624 O   0  0  0  0  0  1  0  0  0  0  0  0
   -5.5729    0.2014    2.8835 O   0  0  0  0  0  0  0  0  0  0  0  0
    1.4787   -0.6934   -1.7448 N   0  0  0  0  0  0  0  0  0  0  0  0
    2.6436   -1.5549   -1.7582 C   0  0  0  0  0  0  0  0  0  0  0  0
    3.8698   -0.9186   -1.0973 C   0  0  0  0  0  0  0  0  0  0  0  0
    3.6680   -0.5412    0.3709 C   0  0  0  0  0  0  0  0  0  0  0  0
    2.9537    0.7756    0.5416 C   0  0  0  0  0  0  0  0  0  0  0  0
    2.5709    1.5314   -0.3382 O   0  0  0  0  0  0  0  0  0  0  0  0
    2.7707    1.0813    1.8405 O   0  0  0  0  0  0  0  0  0  0  0  0
   -0.3716    0.7185   -1.7485 H   0  0  0  0  0  0  0  0  0  0  0  0
   -1.4139   -1.4006    1.1711 H   0  0  0  0  0  0  0  0  0  0  0  0
   -3.4756   -1.0018    2.3969 H   0  0  0  0  0  0  0  0  0  0  0  0
   -4.3687    2.3587   -0.1918 H   0  0  0  0  0  0  0  0  0  0  0  0
   -2.2918    1.9484   -1.4225 H   0  0  0  0  0  0  0  0  0  0  0  0
    1.6490    0.2767   -1.9824 H   0  0  0  0  0  0  0  0  0  0  0  0
    2.4143   -2.5166   -1.2872 H   0  0  0  0  0  0  0  0  0  0  0  0
    2.8709   -1.7505   -2.8117 H   0  0  0  0  0  0  0  0  0  0  0  0
    4.6928   -1.6412   -1.1598 H   0  0  0  0  0  0  0  0  0  0  0  0
    4.1806   -0.0387   -1.6741 H   0  0  0  0  0  0  0  0  0  0  0  0
    3.1144   -1.3248    0.8983 H   0  0  0  0  0  0  0  0  0  0  0  0
    4.6525   -0.4318    0.8404 H   0  0  0  0  0  0  0  0  0  0  0  0
    2.2845    1.9313    1.8337 H   0  0  0  0  0  0  0  0  0  0  0  0
  1  2  2  0
  2  3  1  0
  3  4  1  0
  4  5  2  0
  5  6  1  0
  6  7  2  0
  7  8  1  0
  8  9  2  0
  7 10  1  0
 10 11  1  0
 10 12  2  0
  2 13  1  0
 13 14  1  0
 14 15  1  0
 15 16  1  0
 16 17  1  0
 17 18  2  0
 17 19  1  0
  9  4  1  0
  3 20  1  0
  5 21  1  0
  6 22  1  0
  8 23  1  0
  9 24  1  0
 13 25  1  0
 14 26  1  0
 14 27  1  0
 15 28  1  0
 15 29  1  0
 16 30  1  0
 16 31  1  0
 19 32  1  0
M  CHG  2  10   1  11  -1
M  END
