
     RDKit          3D

 33 33  0  0  0  0  0  0  0  0999 V2000
    0.5244    0.3543   -0.5640 O   0  0  0  0  0  0  0  0  0  0  0  0
   -0.3273   -0.5204   -0.6751 C   0  0  0  0  0  0  0  0  0  0  0  0
   -1.1650   -0.9755    0.3187 N   0  0  0  0  0  0  0  0  0  0  0  0
   -1.3492   -0.4439    1.6108 C   0  0  0  0  0  0  0  0  0  0  0  0
   -0.7844    0.7578    2.0473 C   0  0  0  0  0  0  0  0  0  0  0  0
   -1.0350    1.2357    3.3406 C   0  0  0  0  0  0  0  0  0  0  0  0
   -1.8690    0.5106    4.1993 C   0  0  0  0  0  0  0  0  0  0  0  0
   -2.4443   -0.6912    3.7745 C   0  0  0  0  0  0  0  0  0  0  0  0
   -2.1793   -1.1627    2.4839 C   0  0  0  0  0  0  0  0  0  0  0  0
   -2.1477    1.0158    5.5498 N   0  0  0  0  0  4  0  0  0  0  0  0
   -2.9429    0.3736    6.2509 O   0  0  0  0  0  1  0  0  0  0  0  0
   -1.5727    2.0533    5.9066 O   0  0  0  0  0  0  0  0  0  0  0  0
   -0.5565   -1.2111   -1.8517 N   0  0  0  0  0  0  0  0  0  0  0  0
    0.0981   -0.8515   -3.1047 C   0  0  0  0  0  0  0  0  0  0  0  0
    1.5202   -1.3906   -3.2219 C   0  0  0  0  0  0  0  0  0  0  0  0
    2.4847   -0.2380   -3.2680 C   0  0  0  0  0  0  0  0  0  0  0  0
    2.8707    0.2832   -4.3024 O   0  0  0  0  0  0  0  0  0  0  0  0
    2.7687    0.1554   -2.0222 O   0  0  0  0  0  0  0  0  0  0  0  0
    3.2061    1.6589   -1.6613 S   0  0  0  0  0  6  0  0  0  0  0  0
    2.3878    2.5862   -2.4114 O   0  0  0  0  0  0  0  0  0  0  0  0
    4.6491    1.7349   -1.6438 O   0  0  0  0  0  0  0  0  0  0  0  0
    2.6919    1.7559   -0.1340 O   0  0  0  0  0  0  0  0  0  0  0  0
   -1.6200   -1.8573    0.1305 H   0  0  0  0  0  0  0  0  0  0  0  0
   -0.1490    1.3608    1.4060 H   0  0  0  0  0  0  0  0  0  0  0  0
   -0.5809    2.1749    3.6523 H   0  0  0  0  0  0  0  0  0  0  0  0
   -3.0975   -1.2672    4.4268 H   0  0  0  0  0  0  0  0  0  0  0  0
   -2.6391   -2.0979    2.1723 H   0  0  0  0  0  0  0  0  0  0  0  0
   -1.5056   -1.5438   -1.9534 H   0  0  0  0  0  0  0  0  0  0  0  0
   -0.5171   -1.2946   -3.8956 H   0  0  0  0  0  0  0  0  0  0  0  0
    0.0454    0.2368   -3.2182 H   0  0  0  0  0  0  0  0  0  0  0  0
    1.6424   -1.9501   -4.1570 H   0  0  0  0  0  0  0  0  0  0  0  0
    1.7906   -2.0725   -2.4090 H   0  0  0  0  0  0  0  0  0  0  0  0
    1.8025    1.3204   -0.1169 H   0  0  0  0  0  0  0  0  0  0  0  0
  1  2  2  0
  2  3  1  0
  3  4  1  0
  4  5  2  0
  5  6  1  0
  6  7  2  0
  7  8  1  0
  8  9  2  0
  7 10  1  0
 10 11  1  0
 10 12  2  0
  2 13  1  0
 13 14  1  0
 14 15  1  0
 15 16  1  0
 16 17  2  0
 16 18  1  0
 18 19  1  0
 19 20  2  0
 19 21  2  0
 19 22  1  0
  9  4  1  0
  3 23  1  0
  5 24  1  0
  6 25  1  0
  8 26  1  0
  9 27  1  0
 13 28  1  0
 14 29  1  0
 14 30  1  0
 15 31  1  0
 15 32  1  0
 22 33  1  0
M  CHG  2  10   1  11  -1
M  END
