
     RDKit          3D

 27 27  0  0  0  0  0  0  0  0999 V2000
    0.6200   -2.0317    0.2508 O   0  0  0  0  0  0  0  0  0  0  0  0
    0.9385   -0.8687    0.0321 C   0  0  0  0  0  0  0  0  0  0  0  0
    0.0753    0.1931   -0.1654 N   0  0  0  0  0  0  0  0  0  0  0  0
   -1.3336    0.1733   -0.1590 C   0  0  0  0  0  0  0  0  0  0  0  0
   -2.0990   -0.9764    0.0580 C   0  0  0  0  0  0  0  0  0  0  0  0
   -3.4985   -0.9164    0.0495 C   0  0  0  0  0  0  0  0  0  0  0  0
   -4.1379    0.3061   -0.1786 C   0  0  0  0  0  0  0  0  0  0  0  0
   -3.3863    1.4656   -0.3974 C   0  0  0  0  0  0  0  0  0  0  0  0
   -1.9891    1.3926   -0.3864 C   0  0  0  0  0  0  0  0  0  0  0  0
   -5.6042    0.3741   -0.1886 N   0  0  0  0  0  4  0  0  0  0  0  0
   -6.1274    1.4789   -0.3947 O   0  0  0  0  0  1  0  0  0  0  0  0
   -6.2331   -0.6750    0.0094 O   0  0  0  0  0  0  0  0  0  0  0  0
    2.2603   -0.4569   -0.0477 N   0  0  0  0  0  0  0  0  0  0  0  0
    3.3374   -1.2967    0.1078 C   0  0  0  0  0  0  0  0  0  0  0  0
    4.6137   -0.8976    0.0305 C   0  0  0  0  0  0  0  0  0  0  0  0
    4.9960    0.4955   -0.2314 C   0  0  0  0  0  0  0  0  0  0  0  0
    4.2430    1.4373   -0.4066 O   0  0  0  0  0  0  0  0  0  0  0  0
    6.3309    0.6184   -0.2570 O   0  0  0  0  0  0  0  0  0  0  0  0
    0.5102    1.0877   -0.3340 H   0  0  0  0  0  0  0  0  0  0  0  0
   -1.6374   -1.9432    0.2385 H   0  0  0  0  0  0  0  0  0  0  0  0
   -4.0642   -1.8300    0.2218 H   0  0  0  0  0  0  0  0  0  0  0  0
   -3.8661    2.4256   -0.5766 H   0  0  0  0  0  0  0  0  0  0  0  0
   -1.4217    2.3046   -0.5585 H   0  0  0  0  0  0  0  0  0  0  0  0
    2.4613    0.5222   -0.2316 H   0  0  0  0  0  0  0  0  0  0  0  0
    3.1011   -2.3416    0.3042 H   0  0  0  0  0  0  0  0  0  0  0  0
    5.4202   -1.6093    0.1624 H   0  0  0  0  0  0  0  0  0  0  0  0
    6.4906    1.5684   -0.4355 H   0  0  0  0  0  0  0  0  0  0  0  0
  1  2  2  0
  2  3  1  0
  3  4  1  0
  4  5  2  0
  5  6  1  0
  6  7  2  0
  7  8  1  0
  8  9  2  0
  7 10  1  0
 10 11  1  0
 10 12  2  0
  2 13  1  0
 13 14  1  0
 14 15  2  3
 15 16  1  0
 16 17  2  0
 16 18  1  0
  9  4  1  0
  3 19  1  0
  5 20  1  0
  6 21  1  0
  8 22  1  0
  9 23  1  0
 13 24  1  0
 14 25  1  0
 15 26  1  0
 18 27  1  0
M  CHG  2  10   1  11  -1
M  END
