
     RDKit          3D

 28 28  0  0  0  0  0  0  0  0999 V2000
   -5.7055    1.0478   -1.5494 O   0  0  0  0  0  0  0  0  0  0  0  0
   -5.1889    0.3893   -0.4937 C   0  0  0  0  0  0  0  0  0  0  0  0
   -5.8594    0.1931    0.5049 O   0  0  0  0  0  0  0  0  0  0  0  0
   -3.7750   -0.0422   -0.7380 C   0  0  0  0  0  0  0  0  0  0  0  0
   -3.2005   -0.7212    0.4954 C   0  0  0  0  0  0  0  0  0  0  0  0
   -1.8788   -1.2236    0.2254 O   0  0  0  0  0  0  0  0  0  0  0  0
   -0.8667   -0.3223    0.3475 C   0  0  0  0  0  0  0  0  0  0  0  0
   -1.0306    0.8527    0.6334 O   0  0  0  0  0  0  0  0  0  0  0  0
    0.3068   -0.9712    0.0887 N   0  0  0  0  0  0  0  0  0  0  0  0
    1.6113   -0.4518    0.0903 C   0  0  0  0  0  0  0  0  0  0  0  0
    1.9151    0.8838    0.3715 C   0  0  0  0  0  0  0  0  0  0  0  0
    3.2417    1.3324    0.3543 C   0  0  0  0  0  0  0  0  0  0  0  0
    4.2724    0.4358    0.0530 C   0  0  0  0  0  0  0  0  0  0  0  0
    3.9830   -0.9035   -0.2302 C   0  0  0  0  0  0  0  0  0  0  0  0
    2.6539   -1.3399   -0.2099 C   0  0  0  0  0  0  0  0  0  0  0  0
    5.6645    0.9017    0.0335 N   0  0  0  0  0  4  0  0  0  0  0  0
    6.5448    0.0723   -0.2376 O   0  0  0  0  0  1  0  0  0  0  0  0
    5.8778    2.0953    0.2884 O   0  0  0  0  0  0  0  0  0  0  0  0
   -6.6160    1.2807   -1.2703 H   0  0  0  0  0  0  0  0  0  0  0  0
   -3.1760    0.8352   -1.0031 H   0  0  0  0  0  0  0  0  0  0  0  0
   -3.7531   -0.7342   -1.5869 H   0  0  0  0  0  0  0  0  0  0  0  0
   -3.8124   -1.5879    0.7709 H   0  0  0  0  0  0  0  0  0  0  0  0
   -3.1949   -0.0561    1.3682 H   0  0  0  0  0  0  0  0  0  0  0  0
    0.1816   -1.9512   -0.1239 H   0  0  0  0  0  0  0  0  0  0  0  0
    1.1400    1.6071    0.6100 H   0  0  0  0  0  0  0  0  0  0  0  0
    3.4464    2.3778    0.5777 H   0  0  0  0  0  0  0  0  0  0  0  0
    4.7716   -1.6152   -0.4664 H   0  0  0  0  0  0  0  0  0  0  0  0
    2.4468   -2.3845   -0.4323 H   0  0  0  0  0  0  0  0  0  0  0  0
  1  2  1  0
  2  3  2  0
  2  4  1  0
  4  5  1  0
  5  6  1  0
  6  7  1  0
  7  8  2  0
  7  9  1  0
  9 10  1  0
 10 11  2  0
 11 12  1  0
 12 13  2  0
 13 14  1  0
 14 15  2  0
 13 16  1  0
 16 17  1  0
 16 18  2  0
 15 10  1  0
  1 19  1  0
  4 20  1  0
  4 21  1  0
  5 22  1  0
  5 23  1  0
  9 24  1  0
 11 25  1  0
 12 26  1  0
 14 27  1  0
 15 28  1  0
M  CHG  2  16   1  17  -1
M  END
