
     RDKit          3D

 30 30  0  0  0  0  0  0  0  0999 V2000
    2.6528    2.0115    0.4583 O   0  0  0  0  0  0  0  0  0  0  0  0
    2.5315    0.8997   -0.2933 C   0  0  0  0  0  0  0  0  0  0  0  0
    1.8301    0.8996   -1.2924 O   0  0  0  0  0  0  0  0  0  0  0  0
    3.3615   -0.2359    0.2487 C   0  0  0  0  0  0  0  0  0  0  0  0
    3.1900   -1.5302   -0.5476 C   0  0  0  0  0  0  0  0  0  0  0  0
    1.9498   -2.3387   -0.1605 C   0  0  0  0  0  0  0  0  0  0  0  0
    0.7164   -1.6106   -0.3697 N   0  0  0  0  0  0  0  0  0  0  0  0
   -0.0229   -1.1133    0.6834 C   0  0  0  0  0  0  0  0  0  0  0  0
    0.2692   -1.2910    1.8603 O   0  0  0  0  0  0  0  0  0  0  0  0
   -1.2028   -0.2732    0.3307 C   0  0  0  0  0  0  0  0  0  0  0  0
   -1.6479    0.6712    1.2684 C   0  0  0  0  0  0  0  0  0  0  0  0
   -2.7502    1.4845    0.9885 C   0  0  0  0  0  0  0  0  0  0  0  0
   -3.4160    1.3439   -0.2358 C   0  0  0  0  0  0  0  0  0  0  0  0
   -2.9893    0.3933   -1.1738 C   0  0  0  0  0  0  0  0  0  0  0  0
   -1.8846   -0.4165   -0.8863 C   0  0  0  0  0  0  0  0  0  0  0  0
   -4.5739    2.1956   -0.5374 N   0  0  0  0  0  4  0  0  0  0  0  0
   -4.8923    3.0527    0.2987 O   0  0  0  0  0  1  0  0  0  0  0  0
   -5.1613    2.0087   -1.6124 O   0  0  0  0  0  0  0  0  0  0  0  0
    2.0869    2.6754    0.0132 H   0  0  0  0  0  0  0  0  0  0  0  0
    3.1113   -0.3962    1.3026 H   0  0  0  0  0  0  0  0  0  0  0  0
    4.4096    0.0783    0.1821 H   0  0  0  0  0  0  0  0  0  0  0  0
    3.1679   -1.3150   -1.6230 H   0  0  0  0  0  0  0  0  0  0  0  0
    4.0678   -2.1642   -0.3716 H   0  0  0  0  0  0  0  0  0  0  0  0
    1.8944   -3.2322   -0.7915 H   0  0  0  0  0  0  0  0  0  0  0  0
    2.0242   -2.6732    0.8796 H   0  0  0  0  0  0  0  0  0  0  0  0
    0.5751   -1.2082   -1.2896 H   0  0  0  0  0  0  0  0  0  0  0  0
   -1.1326    0.7748    2.2228 H   0  0  0  0  0  0  0  0  0  0  0  0
   -3.0743    2.2109    1.7313 H   0  0  0  0  0  0  0  0  0  0  0  0
   -3.5056    0.2663   -2.1238 H   0  0  0  0  0  0  0  0  0  0  0  0
   -1.5847   -1.1680   -1.6122 H   0  0  0  0  0  0  0  0  0  0  0  0
  1  2  1  0
  2  3  2  0
  2  4  1  0
  4  5  1  0
  5  6  1  0
  6  7  1  0
  7  8  1  0
  8  9  2  0
  8 10  1  0
 10 11  2  0
 11 12  1  0
 12 13  2  0
 13 14  1  0
 14 15  2  0
 13 16  1  0
 16 17  1  0
 16 18  2  0
 15 10  1  0
  1 19  1  0
  4 20  1  0
  4 21  1  0
  5 22  1  0
  5 23  1  0
  6 24  1  0
  6 25  1  0
  7 26  1  0
 11 27  1  0
 12 28  1  0
 14 29  1  0
 15 30  1  0
M  CHG  2  16   1  17  -1
M  END
