
     RDKit          3D

 29 29  0  0  0  0  0  0  0  0999 V2000
    4.8708    1.3565   -0.4299 O   0  0  0  0  0  0  0  0  0  0  0  0
    3.7073    0.9305    0.0990 C   0  0  0  0  0  0  0  0  0  0  0  0
    2.7531    1.6849    0.1932 O   0  0  0  0  0  0  0  0  0  0  0  0
    3.7633   -0.5172    0.4961 C   0  0  0  0  0  0  0  0  0  0  0  0
    2.5791   -0.8929    1.3797 C   0  0  0  0  0  0  0  0  0  0  0  0
    1.3062   -0.8944    0.6614 N   0  0  0  0  0  0  0  0  0  0  0  0
    0.7711   -1.9073   -0.0781 C   0  0  0  0  0  0  0  0  0  0  0  0
    1.4711   -3.4057   -0.3262 S   0  0  0  0  0  0  0  0  0  0  0  0
   -0.4159   -1.6598   -0.7081 N   0  0  0  0  0  0  0  0  0  0  0  0
   -1.4201   -0.6975   -0.4829 C   0  0  0  0  0  0  0  0  0  0  0  0
   -2.3883   -0.5449   -1.4855 C   0  0  0  0  0  0  0  0  0  0  0  0
   -3.4317    0.3760   -1.3423 C   0  0  0  0  0  0  0  0  0  0  0  0
   -3.5189    1.1400   -0.1739 C   0  0  0  0  0  0  0  0  0  0  0  0
   -2.5776    0.9769    0.8483 C   0  0  0  0  0  0  0  0  0  0  0  0
   -1.5372    0.0526    0.6918 C   0  0  0  0  0  0  0  0  0  0  0  0
   -4.6116    2.1074   -0.0136 N   0  0  0  0  0  4  0  0  0  0  0  0
   -4.6568    2.7569    1.0407 O   0  0  0  0  0  1  0  0  0  0  0  0
   -5.4241    2.2175   -0.9429 O   0  0  0  0  0  0  0  0  0  0  0  0
    4.7076    2.2938   -0.6666 H   0  0  0  0  0  0  0  0  0  0  0  0
    3.7959   -1.1236   -0.4139 H   0  0  0  0  0  0  0  0  0  0  0  0
    4.6864   -0.6754    1.0648 H   0  0  0  0  0  0  0  0  0  0  0  0
    2.7417   -1.8800    1.8237 H   0  0  0  0  0  0  0  0  0  0  0  0
    2.4685   -0.1767    2.2019 H   0  0  0  0  0  0  0  0  0  0  0  0
    0.9801    0.0324    0.4055 H   0  0  0  0  0  0  0  0  0  0  0  0
   -0.6229   -2.3529   -1.4207 H   0  0  0  0  0  0  0  0  0  0  0  0
   -2.3324   -1.1297   -2.4016 H   0  0  0  0  0  0  0  0  0  0  0  0
   -4.1597    0.4814   -2.1441 H   0  0  0  0  0  0  0  0  0  0  0  0
   -2.6437    1.5449    1.7743 H   0  0  0  0  0  0  0  0  0  0  0  0
   -0.8614   -0.0937    1.5298 H   0  0  0  0  0  0  0  0  0  0  0  0
  1  2  1  0
  2  3  2  0
  2  4  1  0
  4  5  1  0
  5  6  1  0
  6  7  1  0
  7  8  2  0
  7  9  1  0
  9 10  1  0
 10 11  2  0
 11 12  1  0
 12 13  2  0
 13 14  1  0
 14 15  2  0
 13 16  1  0
 16 17  1  0
 16 18  2  0
 15 10  1  0
  1 19  1  0
  4 20  1  0
  4 21  1  0
  5 22  1  0
  5 23  1  0
  6 24  1  0
  9 25  1  0
 11 26  1  0
 12 27  1  0
 14 28  1  0
 15 29  1  0
M  CHG  2  16   1  17  -1
M  END
