
     RDKit          3D

 30 30  0  0  0  0  0  0  0  0999 V2000
   -1.0003   -0.6498   -2.7567 O   0  0  0  0  0  0  0  0  0  0  0  0
   -0.9926   -1.1708   -1.6450 C   0  0  0  0  0  0  0  0  0  0  0  0
    0.1558   -2.0341   -1.1559 C   0  0  0  0  0  0  0  0  0  0  0  0
    1.1394   -1.2477   -0.3210 C   0  0  0  0  0  0  0  0  0  0  0  0
    1.2114   -1.4374    1.0669 C   0  0  0  0  0  0  0  0  0  0  0  0
    2.1047   -0.6901    1.8386 C   0  0  0  0  0  0  0  0  0  0  0  0
    2.9319    0.2545    1.2181 C   0  0  0  0  0  0  0  0  0  0  0  0
    2.8704    0.4545   -0.1660 C   0  0  0  0  0  0  0  0  0  0  0  0
    1.9739   -0.2966   -0.9292 C   0  0  0  0  0  0  0  0  0  0  0  0
    3.8673    1.0452    2.0272 N   0  0  0  0  0  4  0  0  0  0  0  0
    4.5948    1.8586    1.4397 O   0  0  0  0  0  1  0  0  0  0  0  0
    3.8734    0.8552    3.2522 O   0  0  0  0  0  0  0  0  0  0  0  0
   -2.0041   -1.0054   -0.7221 N   0  0  0  0  0  0  0  0  0  0  0  0
   -3.0864   -0.0645   -0.9440 C   0  0  0  0  0  0  0  0  0  0  0  0
   -2.6805    1.3777   -0.6622 C   0  0  0  0  0  0  0  0  0  0  0  0
   -2.4043    1.5910    0.7995 C   0  0  0  0  0  0  0  0  0  0  0  0
   -2.2359    0.7337    1.6518 O   0  0  0  0  0  0  0  0  0  0  0  0
   -2.3271    2.8986    1.1148 O   0  0  0  0  0  0  0  0  0  0  0  0
    0.6668   -2.4658   -2.0250 H   0  0  0  0  0  0  0  0  0  0  0  0
   -0.2473   -2.8828   -0.5897 H   0  0  0  0  0  0  0  0  0  0  0  0
    0.5711   -2.1665    1.5605 H   0  0  0  0  0  0  0  0  0  0  0  0
    2.1409   -0.8540    2.9138 H   0  0  0  0  0  0  0  0  0  0  0  0
    3.5040    1.1867   -0.6623 H   0  0  0  0  0  0  0  0  0  0  0  0
    1.9219   -0.1314   -2.0055 H   0  0  0  0  0  0  0  0  0  0  0  0
   -1.8044   -1.2377    0.2462 H   0  0  0  0  0  0  0  0  0  0  0  0
   -3.9146   -0.3725   -0.2967 H   0  0  0  0  0  0  0  0  0  0  0  0
   -3.4159   -0.1554   -1.9849 H   0  0  0  0  0  0  0  0  0  0  0  0
   -3.5056    2.0371   -0.9531 H   0  0  0  0  0  0  0  0  0  0  0  0
   -1.7848    1.6554   -1.2272 H   0  0  0  0  0  0  0  0  0  0  0  0
   -2.1238    2.9143    2.0736 H   0  0  0  0  0  0  0  0  0  0  0  0
  1  2  2  0
  2  3  1  0
  3  4  1  0
  4  5  2  0
  5  6  1  0
  6  7  2  0
  7  8  1  0
  8  9  2  0
  7 10  1  0
 10 11  1  0
 10 12  2  0
  2 13  1  0
 13 14  1  0
 14 15  1  0
 15 16  1  0
 16 17  2  0
 16 18  1  0
  9  4  1  0
  3 19  1  0
  3 20  1  0
  5 21  1  0
  6 22  1  0
  8 23  1  0
  9 24  1  0
 13 25  1  0
 14 26  1  0
 14 27  1  0
 15 28  1  0
 15 29  1  0
 18 30  1  0
M  CHG  2  10   1  11  -1
M  END
