
     RDKit          3D

 28 28  0  0  0  0  0  0  0  0999 V2000
    5.2988    0.8768    2.0924 O   0  0  0  0  0  0  0  0  0  0  0  0
    4.8814    0.8454    0.8118 C   0  0  0  0  0  0  0  0  0  0  0  0
    5.5313    1.3844   -0.0672 O   0  0  0  0  0  0  0  0  0  0  0  0
    3.6026    0.0769    0.6554 C   0  0  0  0  0  0  0  0  0  0  0  0
    3.1004    0.1667   -0.7792 C   0  0  0  0  0  0  0  0  0  0  0  0
    1.8904   -0.6027   -0.9849 N   0  0  0  0  0  0  0  0  0  0  0  0
    0.6586   -0.1589   -0.5904 C   0  0  0  0  0  0  0  0  0  0  0  0
    0.4575    0.9054   -0.0219 O   0  0  0  0  0  0  0  0  0  0  0  0
   -0.2970   -1.1022   -0.9297 O   0  0  0  0  0  0  0  0  0  0  0  0
   -1.5896   -0.7249   -0.5618 C   0  0  0  0  0  0  0  0  0  0  0  0
   -2.3628    0.0214   -1.4519 C   0  0  0  0  0  0  0  0  0  0  0  0
   -3.6686    0.3663   -1.0992 C   0  0  0  0  0  0  0  0  0  0  0  0
   -4.1848   -0.0549    0.1366 C   0  0  0  0  0  0  0  0  0  0  0  0
   -3.4056   -0.8223    1.0171 C   0  0  0  0  0  0  0  0  0  0  0  0
   -2.1003   -1.1644    0.6598 C   0  0  0  0  0  0  0  0  0  0  0  0
   -5.5590    0.3053    0.5097 N   0  0  0  0  0  4  0  0  0  0  0  0
   -5.9797   -0.0854    1.6082 O   0  0  0  0  0  1  0  0  0  0  0  0
   -6.2198    0.9740   -0.2979 O   0  0  0  0  0  0  0  0  0  0  0  0
    6.1250    1.4042    2.0682 H   0  0  0  0  0  0  0  0  0  0  0  0
    3.7876   -0.9684    0.9259 H   0  0  0  0  0  0  0  0  0  0  0  0
    2.8589    0.4907    1.3449 H   0  0  0  0  0  0  0  0  0  0  0  0
    2.8996    1.2101   -1.0500 H   0  0  0  0  0  0  0  0  0  0  0  0
    3.8484   -0.2214   -1.4794 H   0  0  0  0  0  0  0  0  0  0  0  0
    1.9283   -1.5055   -1.4382 H   0  0  0  0  0  0  0  0  0  0  0  0
   -1.9511    0.3403   -2.4054 H   0  0  0  0  0  0  0  0  0  0  0  0
   -4.2654    0.9586   -1.7897 H   0  0  0  0  0  0  0  0  0  0  0  0
   -3.7980   -1.1564    1.9753 H   0  0  0  0  0  0  0  0  0  0  0  0
   -1.4871   -1.7591    1.3309 H   0  0  0  0  0  0  0  0  0  0  0  0
  1  2  1  0
  2  3  2  0
  2  4  1  0
  4  5  1  0
  5  6  1  0
  6  7  1  0
  7  8  2  0
  7  9  1  0
  9 10  1  0
 10 11  2  0
 11 12  1  0
 12 13  2  0
 13 14  1  0
 14 15  2  0
 13 16  1  0
 16 17  1  0
 16 18  2  0
 15 10  1  0
  1 19  1  0
  4 20  1  0
  4 21  1  0
  5 22  1  0
  5 23  1  0
  6 24  1  0
 11 25  1  0
 12 26  1  0
 14 27  1  0
 15 28  1  0
M  CHG  2  16   1  17  -1
M  END
