
     RDKit          3D

 29 29  0  0  0  0  0  0  0  0999 V2000
    1.5632    0.6694    2.4644 O   0  0  0  0  0  0  0  0  0  0  0  0
    1.6944   -0.0524    1.4768 C   0  0  0  0  0  0  0  0  0  0  0  0
    0.9093    0.0692    0.3420 N   0  0  0  0  0  0  0  0  0  0  0  0
    0.0618    1.2041    0.3055 N   0  0  0  0  0  0  0  0  0  0  0  0
   -1.2909    0.8498    0.0612 C   0  0  0  0  0  0  0  0  0  0  0  0
   -2.3129    1.5266    0.7468 C   0  0  0  0  0  0  0  0  0  0  0  0
   -3.6581    1.2266    0.5116 C   0  0  0  0  0  0  0  0  0  0  0  0
   -3.9890    0.2720   -0.4569 C   0  0  0  0  0  0  0  0  0  0  0  0
   -2.9893   -0.3747   -1.1909 C   0  0  0  0  0  0  0  0  0  0  0  0
   -1.6470   -0.0762   -0.9328 C   0  0  0  0  0  0  0  0  0  0  0  0
   -5.3945   -0.0664   -0.6940 N   0  0  0  0  0  4  0  0  0  0  0  0
   -5.6712   -0.6739   -1.7385 O   0  0  0  0  0  1  0  0  0  0  0  0
   -6.2188    0.2614    0.1715 O   0  0  0  0  0  0  0  0  0  0  0  0
    2.7424   -1.1404    1.3946 C   0  0  0  0  0  0  0  0  0  0  0  0
    4.0241   -0.6341    0.7505 C   0  0  0  0  0  0  0  0  0  0  0  0
    3.9343   -0.6590   -0.7473 C   0  0  0  0  0  0  0  0  0  0  0  0
    2.9106   -0.6744   -1.4105 O   0  0  0  0  0  0  0  0  0  0  0  0
    5.1430   -0.6098   -1.3324 O   0  0  0  0  0  0  0  0  0  0  0  0
    1.3100   -0.1987   -0.5612 H   0  0  0  0  0  0  0  0  0  0  0  0
    0.1428    1.7100    1.1990 H   0  0  0  0  0  0  0  0  0  0  0  0
   -2.0648    2.2780    1.4941 H   0  0  0  0  0  0  0  0  0  0  0  0
   -4.4266    1.7371    1.0858 H   0  0  0  0  0  0  0  0  0  0  0  0
   -3.2313   -1.1124   -1.9527 H   0  0  0  0  0  0  0  0  0  0  0  0
   -0.8798   -0.5669   -1.5243 H   0  0  0  0  0  0  0  0  0  0  0  0
    2.9489   -1.4631    2.4225 H   0  0  0  0  0  0  0  0  0  0  0  0
    2.3255   -2.0059    0.8675 H   0  0  0  0  0  0  0  0  0  0  0  0
    4.8427   -1.2964    1.0484 H   0  0  0  0  0  0  0  0  0  0  0  0
    4.2601    0.3860    1.0685 H   0  0  0  0  0  0  0  0  0  0  0  0
    4.9612   -0.5856   -2.2962 H   0  0  0  0  0  0  0  0  0  0  0  0
  1  2  2  0
  2  3  1  0
  3  4  1  0
  4  5  1  0
  5  6  2  0
  6  7  1  0
  7  8  2  0
  8  9  1  0
  9 10  2  0
  8 11  1  0
 11 12  1  0
 11 13  2  0
  2 14  1  0
 14 15  1  0
 15 16  1  0
 16 17  2  0
 16 18  1  0
 10  5  1  0
  3 19  1  0
  4 20  1  0
  6 21  1  0
  7 22  1  0
  9 23  1  0
 10 24  1  0
 14 25  1  0
 14 26  1  0
 15 27  1  0
 15 28  1  0
 18 29  1  0
M  CHG  2  11   1  12  -1
M  END
