
     RDKit          3D

 45 46  0  0  0  0  0  0  0  0999 V2000
    4.8618    2.6316    0.0357 O   0  0  0  0  0  0  0  0  0  0  0  0
    3.5252    2.2634    0.3621 C   0  0  0  0  0  0  0  0  0  0  0  0
    3.2947    0.7807    0.0604 C   0  0  0  0  0  0  0  0  0  0  0  0
    1.8913    0.5034    0.1998 O   0  0  0  0  0  0  0  0  0  0  0  0
    1.5582   -0.8225   -0.2132 C   0  0  0  0  0  0  0  0  0  0  0  0
    0.1496   -1.0324   -0.1231 O   0  0  0  0  0  0  0  0  0  0  0  0
   -0.5828   -0.2297   -1.0588 C   0  0  0  0  0  0  0  0  0  0  0  0
   -2.0838   -0.4637   -0.8364 C   0  0  0  0  0  0  0  0  0  0  0  0
   -2.4646    0.2161    0.3762 O   0  0  0  0  0  0  0  0  0  0  0  0
   -3.8224   -0.0216    0.7151 C   0  0  0  0  0  0  0  0  0  0  0  0
   -4.0759    0.7004    1.9157 O   0  0  0  0  0  0  0  0  0  0  0  0
   -4.7577    0.5383   -0.3718 C   0  0  0  0  0  0  0  0  0  0  0  0
   -4.4216   -0.0743   -1.7346 C   0  0  0  0  0  0  0  0  0  0  0  0
   -2.9152    0.0528   -2.0281 C   0  0  0  0  0  0  0  0  0  0  0  0
   -2.5843    1.4130   -2.3265 O   0  0  0  0  0  0  0  0  0  0  0  0
   -4.8142   -1.4494   -1.7549 O   0  0  0  0  0  0  0  0  0  0  0  0
   -4.5892    1.9716   -0.4432 O   0  0  0  0  0  0  0  0  0  0  0  0
    2.2650   -1.8513    0.6951 C   0  0  0  0  0  0  0  0  0  0  0  0
    3.7799   -1.6048    0.6901 C   0  0  0  0  0  0  0  0  0  0  0  0
    4.1211   -0.1342    0.9817 C   0  0  0  0  0  0  0  0  0  0  0  0
    3.8298    0.1487    2.3614 O   0  0  0  0  0  0  0  0  0  0  0  0
    4.4019   -2.4350    1.6856 O   0  0  0  0  0  0  0  0  0  0  0  0
    1.8130   -1.7730    2.0652 O   0  0  0  0  0  0  0  0  0  0  0  0
    4.9626    3.5643    0.2970 H   0  0  0  0  0  0  0  0  0  0  0  0
    3.3309    2.4967    1.4145 H   0  0  0  0  0  0  0  0  0  0  0  0
    2.8427    2.8778   -0.2359 H   0  0  0  0  0  0  0  0  0  0  0  0
    3.5872    0.5936   -0.9818 H   0  0  0  0  0  0  0  0  0  0  0  0
    1.8731   -0.9745   -1.2543 H   0  0  0  0  0  0  0  0  0  0  0  0
   -0.2948   -0.5319   -2.0716 H   0  0  0  0  0  0  0  0  0  0  0  0
   -0.3368    0.8266   -0.9037 H   0  0  0  0  0  0  0  0  0  0  0  0
   -2.2589   -1.5374   -0.6872 H   0  0  0  0  0  0  0  0  0  0  0  0
   -3.9955   -1.0883    0.8978 H   0  0  0  0  0  0  0  0  0  0  0  0
   -3.4274    0.3373    2.5449 H   0  0  0  0  0  0  0  0  0  0  0  0
   -5.8008    0.3475   -0.0960 H   0  0  0  0  0  0  0  0  0  0  0  0
   -4.9898    0.4564   -2.5087 H   0  0  0  0  0  0  0  0  0  0  0  0
   -2.6630   -0.5395   -2.9154 H   0  0  0  0  0  0  0  0  0  0  0  0
   -3.0036    1.9638   -1.6280 H   0  0  0  0  0  0  0  0  0  0  0  0
   -4.8707   -1.7163   -2.6911 H   0  0  0  0  0  0  0  0  0  0  0  0
   -4.5090    2.2468    0.4964 H   0  0  0  0  0  0  0  0  0  0  0  0
    2.0389   -2.8730    0.3720 H   0  0  0  0  0  0  0  0  0  0  0  0
    4.1926   -1.8836   -0.2863 H   0  0  0  0  0  0  0  0  0  0  0  0
    5.1949    0.0369    0.8460 H   0  0  0  0  0  0  0  0  0  0  0  0
    4.3546   -0.4997    2.8705 H   0  0  0  0  0  0  0  0  0  0  0  0
    3.6952   -2.6158    2.3432 H   0  0  0  0  0  0  0  0  0  0  0  0
    1.6980   -0.8155    2.2475 H   0  0  0  0  0  0  0  0  0  0  0  0
  1  2  1  0
  2  3  1  0
  3  4  1  0
  4  5  1  0
  5  6  1  0
  6  7  1  0
  7  8  1  0
  8  9  1  0
  9 10  1  0
 10 11  1  0
 10 12  1  0
 12 13  1  0
 13 14  1  0
 14 15  1  0
 13 16  1  0
 12 17  1  0
  5 18  1  0
 18 19  1  0
 19 20  1  0
 20 21  1  0
 19 22  1  0
 18 23  1  0
 20  3  1  0
 14  8  1  0
  1 24  1  0
  2 25  1  0
  2 26  1  0
  3 27  1  0
  5 28  1  0
  7 29  1  0
  7 30  1  0
  8 31  1  0
 10 32  1  0
 11 33  1  0
 12 34  1  0
 13 35  1  0
 14 36  1  0
 15 37  1  0
 16 38  1  0
 17 39  1  0
 18 40  1  0
 19 41  1  0
 20 42  1  0
 21 43  1  0
 22 44  1  0
 23 45  1  0
M  END
