
     RDKit          3D

 29 29  0  0  0  0  0  0  0  0999 V2000
   -6.1982   -0.4162   -1.7749 O   0  0  0  0  0  0  0  0  0  0  0  0
   -5.0004   -0.8046   -1.2961 C   0  0  0  0  0  0  0  0  0  0  0  0
   -4.7113   -1.9881   -1.2294 O   0  0  0  0  0  0  0  0  0  0  0  0
   -4.1660    0.3653   -0.8655 C   0  0  0  0  0  0  0  0  0  0  0  0
   -2.7814   -0.0996   -0.4315 C   0  0  0  0  0  0  0  0  0  0  0  0
   -1.9675    1.0503   -0.0143 N   0  0  0  0  0  0  0  0  0  0  0  0
   -0.6886    0.6173    0.3994 N   0  0  0  0  0  0  0  0  0  0  0  0
    0.4039    0.8675   -0.4203 C   0  0  0  0  0  0  0  0  0  0  0  0
    0.3209    1.3931   -1.5264 O   0  0  0  0  0  0  0  0  0  0  0  0
    1.7289    0.4828    0.1297 C   0  0  0  0  0  0  0  0  0  0  0  0
    1.8897   -0.6728    0.9067 C   0  0  0  0  0  0  0  0  0  0  0  0
    3.1553   -1.0248    1.3871 C   0  0  0  0  0  0  0  0  0  0  0  0
    4.2578   -0.2100    1.0898 C   0  0  0  0  0  0  0  0  0  0  0  0
    4.1043    0.9438    0.3088 C   0  0  0  0  0  0  0  0  0  0  0  0
    2.8384    1.2797   -0.1793 C   0  0  0  0  0  0  0  0  0  0  0  0
    5.5842   -0.5715    1.6046 N   0  0  0  0  0  4  0  0  0  0  0  0
    6.4942    0.2622    1.4866 O   0  0  0  0  0  1  0  0  0  0  0  0
    5.7093   -1.6845    2.1351 O   0  0  0  0  0  0  0  0  0  0  0  0
   -6.6438   -1.2537   -2.0169 H   0  0  0  0  0  0  0  0  0  0  0  0
   -4.6784    0.8571   -0.0346 H   0  0  0  0  0  0  0  0  0  0  0  0
   -4.0871    1.0625   -1.7062 H   0  0  0  0  0  0  0  0  0  0  0  0
   -2.2892   -0.6284   -1.2554 H   0  0  0  0  0  0  0  0  0  0  0  0
   -2.8769   -0.8069    0.4012 H   0  0  0  0  0  0  0  0  0  0  0  0
   -1.8265    1.6589   -0.8311 H   0  0  0  0  0  0  0  0  0  0  0  0
   -0.5584    0.3768    1.3783 H   0  0  0  0  0  0  0  0  0  0  0  0
    1.0485   -1.3280    1.1175 H   0  0  0  0  0  0  0  0  0  0  0  0
    3.2704   -1.9361    1.9726 H   0  0  0  0  0  0  0  0  0  0  0  0
    4.9528    1.5819    0.0657 H   0  0  0  0  0  0  0  0  0  0  0  0
    2.7154    2.1654   -0.8012 H   0  0  0  0  0  0  0  0  0  0  0  0
  1  2  1  0
  2  3  2  0
  2  4  1  0
  4  5  1  0
  5  6  1  0
  6  7  1  0
  7  8  1  0
  8  9  2  0
  8 10  1  0
 10 11  2  0
 11 12  1  0
 12 13  2  0
 13 14  1  0
 14 15  2  0
 13 16  1  0
 16 17  1  0
 16 18  2  0
 15 10  1  0
  1 19  1  0
  4 20  1  0
  4 21  1  0
  5 22  1  0
  5 23  1  0
  6 24  1  0
  7 25  1  0
 11 26  1  0
 12 27  1  0
 14 28  1  0
 15 29  1  0
M  CHG  2  16   1  17  -1
M  END
