
     RDKit          3D

 28 28  0  0  0  0  0  0  0  0999 V2000
    6.8326    0.5518   -1.4172 N   0  0  0  0  0  0  0  0  0  0  0  0
    5.6845    0.4159   -1.3145 C   0  0  0  0  0  0  0  0  0  0  0  0
    4.2653    0.2530   -1.1947 C   0  0  0  0  0  0  0  0  0  0  0  0
    3.7156   -0.3105   -0.0412 C   0  0  0  0  0  0  0  0  0  0  0  0
    2.3290   -0.4690    0.0762 C   0  0  0  0  0  0  0  0  0  0  0  0
    1.4789   -0.0699   -0.9575 C   0  0  0  0  0  0  0  0  0  0  0  0
    2.0359    0.4994   -2.1100 C   0  0  0  0  0  0  0  0  0  0  0  0
    3.4208    0.6593   -2.2304 C   0  0  0  0  0  0  0  0  0  0  0  0
    0.0769   -0.1899   -0.9107 N   0  0  0  0  0  0  0  0  0  0  0  0
   -0.6837   -0.8099    0.0552 C   0  0  0  0  0  0  0  0  0  0  0  0
   -0.2770   -1.4339    1.0256 O   0  0  0  0  0  0  0  0  0  0  0  0
   -2.0298   -0.6547   -0.2114 N   0  0  0  0  0  0  0  0  0  0  0  0
   -3.0329   -1.1698    0.7055 C   0  0  0  0  0  0  0  0  0  0  0  0
   -3.2056   -0.3124    1.9546 C   0  0  0  0  0  0  0  0  0  0  0  0
   -3.7995    1.0249    1.6156 C   0  0  0  0  0  0  0  0  0  0  0  0
   -3.8337    1.5569    0.5173 O   0  0  0  0  0  0  0  0  0  0  0  0
   -4.3006    1.6495    2.6986 O   0  0  0  0  0  0  0  0  0  0  0  0
    4.3559   -0.6321    0.7785 H   0  0  0  0  0  0  0  0  0  0  0  0
    1.9438   -0.9065    0.9929 H   0  0  0  0  0  0  0  0  0  0  0  0
    1.4018    0.8247   -2.9313 H   0  0  0  0  0  0  0  0  0  0  0  0
    3.8311    1.1019   -3.1362 H   0  0  0  0  0  0  0  0  0  0  0  0
   -0.4335    0.1082   -1.7283 H   0  0  0  0  0  0  0  0  0  0  0  0
   -2.2906    0.1967   -0.6945 H   0  0  0  0  0  0  0  0  0  0  0  0
   -2.7436   -2.1860    0.9958 H   0  0  0  0  0  0  0  0  0  0  0  0
   -3.9713   -1.2326    0.1437 H   0  0  0  0  0  0  0  0  0  0  0  0
   -2.2516   -0.1476    2.4649 H   0  0  0  0  0  0  0  0  0  0  0  0
   -3.8903   -0.8271    2.6379 H   0  0  0  0  0  0  0  0  0  0  0  0
   -4.6285    2.5099    2.3629 H   0  0  0  0  0  0  0  0  0  0  0  0
  1  2  3  0
  2  3  1  0
  3  4  2  0
  4  5  1  0
  5  6  2  0
  6  7  1  0
  7  8  2  0
  6  9  1  0
  9 10  1  0
 10 11  2  0
 10 12  1  0
 12 13  1  0
 13 14  1  0
 14 15  1  0
 15 16  2  0
 15 17  1  0
  8  3  1  0
  4 18  1  0
  5 19  1  0
  7 20  1  0
  8 21  1  0
  9 22  1  0
 12 23  1  0
 13 24  1  0
 13 25  1  0
 14 26  1  0
 14 27  1  0
 17 28  1  0
M  END
