
     RDKit          3D

 27 27  0  0  0  0  0  0  0  0999 V2000
    0.4262    1.0938   -0.0910 O   0  0  0  0  0  0  0  0  0  0  0  0
    0.3208   -0.1238   -0.1323 C   0  0  0  0  0  0  0  0  0  0  0  0
   -0.8421   -0.8610   -0.0922 N   0  0  0  0  0  0  0  0  0  0  0  0
   -2.1661   -0.3793   -0.0954 C   0  0  0  0  0  0  0  0  0  0  0  0
   -3.1900   -1.3134    0.1103 C   0  0  0  0  0  0  0  0  0  0  0  0
   -4.5294   -0.9147    0.1117 C   0  0  0  0  0  0  0  0  0  0  0  0
   -4.8575    0.4221   -0.0966 C   0  0  0  0  0  0  0  0  0  0  0  0
   -3.8467    1.3567   -0.3079 C   0  0  0  0  0  0  0  0  0  0  0  0
   -2.5061    0.9577   -0.3094 C   0  0  0  0  0  0  0  0  0  0  0  0
    1.4197   -0.9636   -0.2092 N   0  0  0  0  0  0  0  0  0  0  0  0
    2.7572   -0.4007   -0.3232 C   0  0  0  0  0  0  0  0  0  0  0  0
    3.2589    0.1939    0.9869 C   0  0  0  0  0  0  0  0  0  0  0  0
    4.6669    0.6862    0.8293 C   0  0  0  0  0  0  0  0  0  0  0  0
    5.3850    0.5724   -0.1495 O   0  0  0  0  0  0  0  0  0  0  0  0
    5.1212    1.2910    1.9446 O   0  0  0  0  0  0  0  0  0  0  0  0
   -0.7206   -1.8422    0.1058 H   0  0  0  0  0  0  0  0  0  0  0  0
   -2.9613   -2.3627    0.2750 H   0  0  0  0  0  0  0  0  0  0  0  0
   -5.3150   -1.6474    0.2756 H   0  0  0  0  0  0  0  0  0  0  0  0
   -5.8978    0.7365   -0.0956 H   0  0  0  0  0  0  0  0  0  0  0  0
   -4.0964    2.4018   -0.4734 H   0  0  0  0  0  0  0  0  0  0  0  0
   -1.7496    1.7162   -0.4854 H   0  0  0  0  0  0  0  0  0  0  0  0
    1.2537   -1.7953   -0.7572 H   0  0  0  0  0  0  0  0  0  0  0  0
    2.7530    0.3524   -1.1202 H   0  0  0  0  0  0  0  0  0  0  0  0
    3.4132   -1.2179   -0.6446 H   0  0  0  0  0  0  0  0  0  0  0  0
    3.2410   -0.5662    1.7756 H   0  0  0  0  0  0  0  0  0  0  0  0
    2.6303    1.0347    1.2971 H   0  0  0  0  0  0  0  0  0  0  0  0
    6.0313    1.5729    1.7155 H   0  0  0  0  0  0  0  0  0  0  0  0
  1  2  2  0
  2  3  1  0
  3  4  1  0
  4  5  2  0
  5  6  1  0
  6  7  2  0
  7  8  1  0
  8  9  2  0
  2 10  1  0
 10 11  1  0
 11 12  1  0
 12 13  1  0
 13 14  2  0
 13 15  1  0
  9  4  1  0
  3 16  1  0
  5 17  1  0
  6 18  1  0
  7 19  1  0
  8 20  1  0
  9 21  1  0
 10 22  1  0
 11 23  1  0
 11 24  1  0
 12 25  1  0
 12 26  1  0
 15 27  1  0
M  END
