
     RDKit          3D

 17 16  0  0  0  0  0  0  0  0999 V2000
    2.8729   -0.0983    2.0237 O   0  0  0  0  0  0  0  0  0  0  0  0
    2.4033   -0.0701    0.7607 C   0  0  0  0  0  0  0  0  0  0  0  0
    3.1547   -0.2475   -0.1829 O   0  0  0  0  0  0  0  0  0  0  0  0
    0.9317    0.2152    0.7119 C   0  0  0  0  0  0  0  0  0  0  0  0
    0.4291    0.1611   -0.7252 C   0  0  0  0  0  0  0  0  0  0  0  0
   -0.9792    0.5036   -0.8405 N   0  0  0  0  0  0  0  0  0  0  0  0
   -1.9382   -0.3796   -0.4357 C   0  0  0  0  0  0  0  0  0  0  0  0
   -1.7429   -1.4419    0.1322 O   0  0  0  0  0  0  0  0  0  0  0  0
   -3.1875    0.0585   -0.7325 N   0  0  0  0  0  0  0  0  0  0  0  0
    3.8266   -0.3004    1.9239 H   0  0  0  0  0  0  0  0  0  0  0  0
    0.7546    1.2104    1.1345 H   0  0  0  0  0  0  0  0  0  0  0  0
    0.4144   -0.5249    1.3308 H   0  0  0  0  0  0  0  0  0  0  0  0
    0.9778    0.8773   -1.3476 H   0  0  0  0  0  0  0  0  0  0  0  0
    0.5808   -0.8364   -1.1549 H   0  0  0  0  0  0  0  0  0  0  0  0
   -1.2459    1.0201   -1.6672 H   0  0  0  0  0  0  0  0  0  0  0  0
   -3.9076   -0.5275   -0.3271 H   0  0  0  0  0  0  0  0  0  0  0  0
   -3.3443    1.0478   -0.6040 H   0  0  0  0  0  0  0  0  0  0  0  0
  1  2  1  0
  2  3  2  0
  2  4  1  0
  4  5  1  0
  5  6  1  0
  6  7  1  0
  7  8  2  0
  7  9  1  0
  1 10  1  0
  4 11  1  0
  4 12  1  0
  5 13  1  0
  5 14  1  0
  6 15  1  0
  9 16  1  0
  9 17  1  0
M  END
