
     RDKit          3D

 14 14  0  0  0  0  0  0  0  0999 V2000
    0.7981   -0.9908    0.0794 C   0  0  0  0  0  0  0  0  0  0  0  0
    1.0954    0.4820   -0.1434 C   0  0  0  0  0  0  0  0  0  0  0  0
   -0.2652    1.1685   -0.1307 C   0  0  0  0  0  0  0  0  0  0  0  0
   -1.2698    0.0525    0.0988 C   0  0  0  0  0  0  0  0  0  0  0  0
   -0.5795   -1.1416   -0.3803 N   0  0  0  0  0  0  0  0  0  0  0  0
    1.4837   -1.6373   -0.4757 H   0  0  0  0  0  0  0  0  0  0  0  0
    0.8733   -1.2408    1.1444 H   0  0  0  0  0  0  0  0  0  0  0  0
    1.7582    0.8799    0.6317 H   0  0  0  0  0  0  0  0  0  0  0  0
    1.5808    0.6390   -1.1138 H   0  0  0  0  0  0  0  0  0  0  0  0
   -0.3274    1.9321    0.6512 H   0  0  0  0  0  0  0  0  0  0  0  0
   -0.4418    1.6595   -1.0949 H   0  0  0  0  0  0  0  0  0  0  0  0
   -2.2053    0.2240   -0.4412 H   0  0  0  0  0  0  0  0  0  0  0  0
   -1.4997   -0.0436    1.1666 H   0  0  0  0  0  0  0  0  0  0  0  0
   -1.0007   -1.9835    0.0081 H   0  0  0  0  0  0  0  0  0  0  0  0
  1  2  1  0
  2  3  1  0
  3  4  1  0
  4  5  1  0
  5  1  1  0
  1  6  1  0
  1  7  1  0
  2  8  1  0
  2  9  1  0
  3 10  1  0
  3 11  1  0
  4 12  1  0
  4 13  1  0
  5 14  1  0
M  END
