
     RDKit          3D

 10 10  0  0  0  0  0  0  0  0999 V2000
    0.3473   -1.1136   -0.1480 C   0  0  0  0  0  0  0  0  0  0  0  0
    1.1617   -0.0155   -0.3133 C   0  0  0  0  0  0  0  0  0  0  0  0
    0.3684    1.1354   -0.0904 C   0  0  0  0  0  0  0  0  0  0  0  0
   -0.9060    0.7047    0.2041 C   0  0  0  0  0  0  0  0  0  0  0  0
   -0.9091   -0.6654    0.1667 N   0  0  0  0  0  0  0  0  0  0  0  0
    0.5535   -2.1725   -0.2270 H   0  0  0  0  0  0  0  0  0  0  0  0
    2.2136   -0.0403   -0.5670 H   0  0  0  0  0  0  0  0  0  0  0  0
    0.6920    2.1670   -0.1396 H   0  0  0  0  0  0  0  0  0  0  0  0
   -1.8084    1.2539    0.4364 H   0  0  0  0  0  0  0  0  0  0  0  0
   -1.7130   -1.2539    0.3437 H   0  0  0  0  0  0  0  0  0  0  0  0
  1  2  2  0
  2  3  1  0
  3  4  2  0
  4  5  1  0
  5  1  1  0
  1  6  1  0
  2  7  1  0
  3  8  1  0
  4  9  1  0
  5 10  1  0
M  END
