
     RDKit          3D

  9  9  0  0  0  0  0  0  0  0999 V2000
   -1.0241   -0.6642    0.0187 C   0  0  0  0  0  0  0  0  0  0  0  0
    0.0390   -1.3971    0.2571 N   0  0  0  0  0  0  0  0  0  0  0  0
    1.0975   -0.5274    0.2045 C   0  0  0  0  0  0  0  0  0  0  0  0
    0.6654    0.7485   -0.0696 C   0  0  0  0  0  0  0  0  0  0  0  0
   -0.6932    0.6452   -0.1857 N   0  0  0  0  0  0  0  0  0  0  0  0
   -2.0450   -1.0201   -0.0181 H   0  0  0  0  0  0  0  0  0  0  0  0
    2.1124   -0.8667    0.3667 H   0  0  0  0  0  0  0  0  0  0  0  0
    1.1881    1.6866   -0.1877 H   0  0  0  0  0  0  0  0  0  0  0  0
   -1.3402    1.3953   -0.3859 H   0  0  0  0  0  0  0  0  0  0  0  0
  1  2  2  0
  2  3  1  0
  3  4  2  0
  4  5  1  0
  5  1  1  0
  1  6  1  0
  3  7  1  0
  4  8  1  0
  5  9  1  0
M  END
