
     RDKit          3D

  9  9  0  0  0  0  0  0  0  0999 V2000
   -0.6985    0.7127   -0.0881 C   0  0  0  0  0  0  0  0  0  0  0  0
    0.6416    0.7687    0.2113 C   0  0  0  0  0  0  0  0  0  0  0  0
    1.0581   -0.5750    0.2252 C   0  0  0  0  0  0  0  0  0  0  0  0
    0.0593   -1.4191   -0.0446 N   0  0  0  0  0  0  0  0  0  0  0  0
   -0.9978   -0.6111   -0.2312 N   0  0  0  0  0  0  0  0  0  0  0  0
   -1.4505    1.4787   -0.2098 H   0  0  0  0  0  0  0  0  0  0  0  0
    1.2358    1.6523    0.3940 H   0  0  0  0  0  0  0  0  0  0  0  0
    2.0454   -0.9737    0.4203 H   0  0  0  0  0  0  0  0  0  0  0  0
   -1.8933   -1.0335   -0.4537 H   0  0  0  0  0  0  0  0  0  0  0  0
  1  2  2  0
  2  3  1  0
  3  4  2  0
  4  5  1  0
  5  1  1  0
  1  6  1  0
  2  7  1  0
  3  8  1  0
  5  9  1  0
M  END
