
     RDKit          3D

 17 17  0  0  0  0  0  0  0  0999 V2000
   -0.2918    1.3370    0.4266 C   0  0  0  0  0  0  0  0  0  0  0  0
   -1.3015    0.4157   -0.2508 C   0  0  0  0  0  0  0  0  0  0  0  0
   -0.9801   -1.0448    0.0508 C   0  0  0  0  0  0  0  0  0  0  0  0
    0.4778   -1.3688   -0.2696 C   0  0  0  0  0  0  0  0  0  0  0  0
    1.3935   -0.4715    0.4361 N   0  0  0  0  0  0  0  0  0  0  0  0
    1.1417    0.9287    0.0929 C   0  0  0  0  0  0  0  0  0  0  0  0
   -0.4400    1.3037    1.5135 H   0  0  0  0  0  0  0  0  0  0  0  0
   -0.4659    2.3720    0.1117 H   0  0  0  0  0  0  0  0  0  0  0  0
   -1.2750    0.5791   -1.3352 H   0  0  0  0  0  0  0  0  0  0  0  0
   -2.3157    0.6555    0.0867 H   0  0  0  0  0  0  0  0  0  0  0  0
   -1.1780   -1.2502    1.1105 H   0  0  0  0  0  0  0  0  0  0  0  0
   -1.6417   -1.6969   -0.5303 H   0  0  0  0  0  0  0  0  0  0  0  0
    0.6508   -1.3087   -1.3511 H   0  0  0  0  0  0  0  0  0  0  0  0
    0.6905   -2.4002    0.0318 H   0  0  0  0  0  0  0  0  0  0  0  0
    2.3538   -0.7103    0.1906 H   0  0  0  0  0  0  0  0  0  0  0  0
    1.3463    1.0980   -0.9713 H   0  0  0  0  0  0  0  0  0  0  0  0
    1.8354    1.5616    0.6570 H   0  0  0  0  0  0  0  0  0  0  0  0
  1  2  1  0
  2  3  1  0
  3  4  1  0
  4  5  1  0
  5  6  1  0
  6  1  1  0
  1  7  1  0
  1  8  1  0
  2  9  1  0
  2 10  1  0
  3 11  1  0
  3 12  1  0
  4 13  1  0
  4 14  1  0
  5 15  1  0
  6 16  1  0
  6 17  1  0
M  END
