
     RDKit          3D

 16 16  0  0  0  0  0  0  0  0999 V2000
   -1.1286   -0.7412    0.6127 N   0  0  0  0  0  0  0  0  0  0  0  0
   -0.0248   -1.4252   -0.0805 C   0  0  0  0  0  0  0  0  0  0  0  0
    1.2877   -0.6136   -0.0595 C   0  0  0  0  0  0  0  0  0  0  0  0
    1.1286    0.7412   -0.6127 N   0  0  0  0  0  0  0  0  0  0  0  0
    0.0248    1.4252    0.0805 C   0  0  0  0  0  0  0  0  0  0  0  0
   -1.2877    0.6136    0.0595 C   0  0  0  0  0  0  0  0  0  0  0  0
   -1.9899   -1.2645    0.4641 H   0  0  0  0  0  0  0  0  0  0  0  0
   -0.3153   -1.6295   -1.1189 H   0  0  0  0  0  0  0  0  0  0  0  0
    0.1454   -2.3938    0.4020 H   0  0  0  0  0  0  0  0  0  0  0  0
    2.0463   -1.1444   -0.6451 H   0  0  0  0  0  0  0  0  0  0  0  0
    1.6636   -0.5472    0.9694 H   0  0  0  0  0  0  0  0  0  0  0  0
    1.9899    1.2645   -0.4640 H   0  0  0  0  0  0  0  0  0  0  0  0
    0.3153    1.6295    1.1189 H   0  0  0  0  0  0  0  0  0  0  0  0
   -0.1454    2.3938   -0.4020 H   0  0  0  0  0  0  0  0  0  0  0  0
   -2.0463    1.1444    0.6451 H   0  0  0  0  0  0  0  0  0  0  0  0
   -1.6636    0.5472   -0.9694 H   0  0  0  0  0  0  0  0  0  0  0  0
  1  2  1  0
  2  3  1  0
  3  4  1  0
  4  5  1  0
  5  6  1  0
  6  1  1  0
  1  7  1  0
  2  8  1  0
  2  9  1  0
  3 10  1  0
  3 11  1  0
  4 12  1  0
  5 13  1  0
  5 14  1  0
  6 15  1  0
  6 16  1  0
M  END
