
     RDKit          3D

 64 70  0  0  0  0  0  0  0  0999 V2000
   -4.9356    2.0317    2.8388 O   0  0  0  0  0  0  0  0  0  0  0  0
   -3.8809    1.6670    2.3340 C   0  0  0  0  0  0  0  0  0  0  0  0
   -3.0812    2.5281    1.6562 O   0  0  0  0  0  0  0  0  0  0  0  0
   -1.7439    2.1028    1.3744 C   0  0  0  0  0  0  0  0  0  0  0  0
   -1.7163    0.7955    0.5411 C   0  0  0  0  0  0  0  0  0  0  0  0
   -2.6715   -0.2117    1.1865 C   0  0  0  0  0  0  0  0  0  0  0  0
   -3.3574    0.2658    2.4621 C   0  0  0  0  0  0  0  0  0  0  0  0
   -3.6564   -0.6017    0.2265 O   0  0  0  0  0  0  0  0  0  0  0  0
   -3.6177    0.2159   -0.9513 C   0  0  0  0  0  0  0  0  0  0  0  0
   -2.3379    1.0796   -0.8568 C   0  0  0  0  0  0  0  0  0  0  0  0
   -1.3301    0.9750   -2.0021 C   0  0  0  0  0  0  0  0  0  0  0  0
   -0.5797   -0.3319   -1.9912 C   0  0  0  0  0  0  0  0  0  0  0  0
   -0.5055   -1.0052   -3.0214 O   0  0  0  0  0  0  0  0  0  0  0  0
    0.0750   -0.7837   -0.6686 C   0  0  0  0  0  0  0  0  0  0  0  0
   -0.2249    0.3016    0.4278 C   0  0  0  0  0  0  0  0  0  0  0  0
    0.4374   -0.0985    1.7679 C   0  0  0  0  0  0  0  0  0  0  0  0
    1.9619   -0.1397    1.6086 C   0  0  0  0  0  0  0  0  0  0  0  0
    2.4602   -1.0866    0.4928 C   0  0  0  0  0  0  0  0  0  0  0  0
    1.6240   -0.9034   -0.7816 C   0  0  0  0  0  0  0  0  0  0  0  0
    2.1550    0.0639   -1.7018 O   0  0  0  0  0  0  0  0  0  0  0  0
    2.3190   -1.3184   -2.0638 C   0  0  0  0  0  0  0  0  0  0  0  0
    3.7174   -1.8098   -2.0672 C   0  0  0  0  0  0  0  0  0  0  0  0
    4.1713   -2.3690   -3.0562 O   0  0  0  0  0  0  0  0  0  0  0  0
    4.4476   -1.6699   -0.9269 O   0  0  0  0  0  0  0  0  0  0  0  0
    3.9917   -0.8652    0.1874 C   0  0  0  0  0  0  0  0  0  0  0  0
    4.5186    0.5469    0.1089 C   0  0  0  0  0  0  0  0  0  0  0  0
    4.7248    1.3356   -1.0076 C   0  0  0  0  0  0  0  0  0  0  0  0
    5.2391    2.5440   -0.6676 O   0  0  0  0  0  0  0  0  0  0  0  0
    5.4052    2.5394    0.6766 C   0  0  0  0  0  0  0  0  0  0  0  0
    4.9937    1.3386    1.2025 C   0  0  0  0  0  0  0  0  0  0  0  0
    2.3460   -2.5558    0.9895 C   0  0  0  0  0  0  0  0  0  0  0  0
   -0.5416   -2.1707   -0.3974 C   0  0  0  0  0  0  0  0  0  0  0  0
   -4.8783    1.1000   -0.9455 C   0  0  0  0  0  0  0  0  0  0  0  0
   -3.7503   -0.7200   -2.1572 C   0  0  0  0  0  0  0  0  0  0  0  0
   -1.2531    2.9154    0.8257 H   0  0  0  0  0  0  0  0  0  0  0  0
   -1.2255    2.0238    2.3335 H   0  0  0  0  0  0  0  0  0  0  0  0
   -2.1549   -1.1354    1.4569 H   0  0  0  0  0  0  0  0  0  0  0  0
   -4.2053   -0.3894    2.6928 H   0  0  0  0  0  0  0  0  0  0  0  0
   -2.6639    0.2458    3.3101 H   0  0  0  0  0  0  0  0  0  0  0  0
   -2.6581    2.1306   -0.9001 H   0  0  0  0  0  0  0  0  0  0  0  0
   -0.5886    1.7805   -1.9361 H   0  0  0  0  0  0  0  0  0  0  0  0
   -1.8272    1.0999   -2.9700 H   0  0  0  0  0  0  0  0  0  0  0  0
    0.3266    1.2013    0.1057 H   0  0  0  0  0  0  0  0  0  0  0  0
    0.2217    0.6302    2.5530 H   0  0  0  0  0  0  0  0  0  0  0  0
    0.0597   -1.0530    2.1428 H   0  0  0  0  0  0  0  0  0  0  0  0
    2.2690    0.8902    1.3953 H   0  0  0  0  0  0  0  0  0  0  0  0
    2.4223   -0.4075    2.5677 H   0  0  0  0  0  0  0  0  0  0  0  0
    1.7276   -1.7017   -2.8847 H   0  0  0  0  0  0  0  0  0  0  0  0
    4.5378   -1.2909    1.0424 H   0  0  0  0  0  0  0  0  0  0  0  0
    4.5658    1.1894   -2.0678 H   0  0  0  0  0  0  0  0  0  0  0  0
    5.8272    3.4406    1.0993 H   0  0  0  0  0  0  0  0  0  0  0  0
    5.0319    1.0632    2.2474 H   0  0  0  0  0  0  0  0  0  0  0  0
    1.3855   -2.7751    1.4551 H   0  0  0  0  0  0  0  0  0  0  0  0
    2.4873   -3.2728    0.1737 H   0  0  0  0  0  0  0  0  0  0  0  0
    3.0968   -2.7735    1.7585 H   0  0  0  0  0  0  0  0  0  0  0  0
   -0.4427   -2.4992    0.6359 H   0  0  0  0  0  0  0  0  0  0  0  0
   -1.6104   -2.2004   -0.6210 H   0  0  0  0  0  0  0  0  0  0  0  0
   -0.0718   -2.9359   -1.0273 H   0  0  0  0  0  0  0  0  0  0  0  0
   -5.7845    0.4884   -0.8638 H   0  0  0  0  0  0  0  0  0  0  0  0
   -4.9455    1.7006   -1.8592 H   0  0  0  0  0  0  0  0  0  0  0  0
   -4.9007    1.7831   -0.0947 H   0  0  0  0  0  0  0  0  0  0  0  0
   -4.6973   -1.2726   -2.1108 H   0  0  0  0  0  0  0  0  0  0  0  0
   -3.7305   -0.1752   -3.1059 H   0  0  0  0  0  0  0  0  0  0  0  0
   -2.9779   -1.4902   -2.1720 H   0  0  0  0  0  0  0  0  0  0  0  0
  1  2  2  0
  2  3  1  0
  3  4  1  0
  4  5  1  0
  5  6  1  0
  6  7  1  0
  6  8  1  0
  8  9  1  0
  9 10  1  0
 10 11  1  0
 11 12  1  0
 12 13  2  0
 12 14  1  0
 14 15  1  0
 15 16  1  0
 16 17  1  0
 17 18  1  0
 18 19  1  0
 19 20  1  0
 20 21  1  0
 21 22  1  0
 22 23  2  0
 22 24  1  0
 24 25  1  0
 25 26  1  0
 26 27  2  0
 27 28  1  0
 28 29  1  0
 29 30  2  0
 18 31  1  0
 14 32  1  0
  9 33  1  0
  9 34  1  0
  7  2  1  0
 19 14  1  0
 30 26  1  0
 10  5  1  0
 25 18  1  0
 15  5  1  0
 21 19  1  0
  4 35  1  0
  4 36  1  0
  6 37  1  0
  7 38  1  0
  7 39  1  0
 10 40  1  0
 11 41  1  0
 11 42  1  0
 15 43  1  0
 16 44  1  0
 16 45  1  0
 17 46  1  0
 17 47  1  0
 21 48  1  0
 25 49  1  0
 27 50  1  0
 29 51  1  0
 30 52  1  0
 31 53  1  0
 31 54  1  0
 31 55  1  0
 32 56  1  0
 32 57  1  0
 32 58  1  0
 33 59  1  0
 33 60  1  0
 33 61  1  0
 34 62  1  0
 34 63  1  0
 34 64  1  0
M  END
