
     RDKit          3D

 15 16  0  0  0  0  0  0  0  0999 V2000
   -1.8670   -0.7410    0.2896 C   0  0  0  0  0  0  0  0  0  0  0  0
   -1.7627    0.4063    1.0807 C   0  0  0  0  0  0  0  0  0  0  0  0
   -0.5805    1.1576    1.1032 C   0  0  0  0  0  0  0  0  0  0  0  0
    0.4995    0.7356    0.3147 C   0  0  0  0  0  0  0  0  0  0  0  0
    0.3661   -0.4107   -0.4626 C   0  0  0  0  0  0  0  0  0  0  0  0
   -0.7998   -1.1782   -0.5042 C   0  0  0  0  0  0  0  0  0  0  0  0
    1.5789   -0.5329   -1.0913 N   0  0  0  0  0  0  0  0  0  0  0  0
    2.3709    0.5044   -0.6864 C   0  0  0  0  0  0  0  0  0  0  0  0
    1.7482    1.2887    0.1630 N   0  0  0  0  0  0  0  0  0  0  0  0
   -2.7970   -1.3062    0.2907 H   0  0  0  0  0  0  0  0  0  0  0  0
   -2.6077    0.7228    1.6876 H   0  0  0  0  0  0  0  0  0  0  0  0
   -0.4914    2.0487    1.7140 H   0  0  0  0  0  0  0  0  0  0  0  0
   -0.8824   -2.0686   -1.1174 H   0  0  0  0  0  0  0  0  0  0  0  0
    1.8409   -1.2610   -1.7393 H   0  0  0  0  0  0  0  0  0  0  0  0
    3.3841    0.6344   -1.0422 H   0  0  0  0  0  0  0  0  0  0  0  0
  1  2  2  0
  2  3  1  0
  3  4  2  0
  4  5  1  0
  5  6  2  0
  5  7  1  0
  7  8  1  0
  8  9  2  0
  6  1  1  0
  9  4  1  0
  1 10  1  0
  2 11  1  0
  3 12  1  0
  6 13  1  0
  7 14  1  0
  8 15  1  0
M  END
