
     RDKit          3D

 10 10  0  0  0  0  0  0  0  0999 V2000
   -0.7299    0.7608    0.0629 C   0  0  0  0  0  0  0  0  0  0  0  0
    0.6554    0.8270    0.0449 C   0  0  0  0  0  0  0  0  0  0  0  0
    1.3603   -0.3577   -0.0461 C   0  0  0  0  0  0  0  0  0  0  0  0
    0.7545   -1.5606   -0.1170 N   0  0  0  0  0  0  0  0  0  0  0  0
   -0.6051   -1.6256   -0.0993 N   0  0  0  0  0  0  0  0  0  0  0  0
   -1.3207   -0.4858   -0.0112 C   0  0  0  0  0  0  0  0  0  0  0  0
   -1.3343    1.6575    0.1329 H   0  0  0  0  0  0  0  0  0  0  0  0
    1.1732    1.7774    0.1002 H   0  0  0  0  0  0  0  0  0  0  0  0
    2.4437   -0.3808   -0.0652 H   0  0  0  0  0  0  0  0  0  0  0  0
   -2.3971   -0.6121   -0.0022 H   0  0  0  0  0  0  0  0  0  0  0  0
  1  2  2  0
  2  3  1  0
  3  4  2  0
  4  5  1  0
  5  6  2  0
  6  1  1  0
  1  7  1  0
  2  8  1  0
  3  9  1  0
  6 10  1  0
M  END
