
     RDKit          3D

 10 10  0  0  0  0  0  0  0  0999 V2000
   -0.0680   -1.3889   -0.2769 N   0  0  0  0  0  0  0  0  0  0  0  0
   -1.1730   -0.6160   -0.1685 C   0  0  0  0  0  0  0  0  0  0  0  0
   -1.1065    0.7409    0.1020 C   0  0  0  0  0  0  0  0  0  0  0  0
    0.0680    1.3889    0.2769 N   0  0  0  0  0  0  0  0  0  0  0  0
    1.1730    0.6160    0.1685 C   0  0  0  0  0  0  0  0  0  0  0  0
    1.1065   -0.7409   -0.1020 C   0  0  0  0  0  0  0  0  0  0  0  0
   -2.1222   -1.1207   -0.3061 H   0  0  0  0  0  0  0  0  0  0  0  0
   -2.0013    1.3466    0.1858 H   0  0  0  0  0  0  0  0  0  0  0  0
    2.1222    1.1207    0.3061 H   0  0  0  0  0  0  0  0  0  0  0  0
    2.0013   -1.3466   -0.1858 H   0  0  0  0  0  0  0  0  0  0  0  0
  1  2  2  0
  2  3  1  0
  3  4  2  0
  4  5  1  0
  5  6  2  0
  6  1  1  0
  2  7  1  0
  3  8  1  0
  5  9  1  0
  6 10  1  0
M  END
