
     RDKit          3D

 11 11  0  0  0  0  0  0  0  0999 V2000
    1.2197    0.4296    0.0191 C   0  0  0  0  0  0  0  0  0  0  0  0
    0.0504    1.1828    0.0033 C   0  0  0  0  0  0  0  0  0  0  0  0
   -1.1787    0.5320   -0.0164 C   0  0  0  0  0  0  0  0  0  0  0  0
   -1.1868   -0.8538   -0.0195 C   0  0  0  0  0  0  0  0  0  0  0  0
   -0.0687   -1.6118   -0.0046 N   0  0  0  0  0  0  0  0  0  0  0  0
    1.1098   -0.9518    0.0144 C   0  0  0  0  0  0  0  0  0  0  0  0
    2.1930    0.9065    0.0346 H   0  0  0  0  0  0  0  0  0  0  0  0
    0.0967    2.2679    0.0064 H   0  0  0  0  0  0  0  0  0  0  0  0
   -2.1079    1.0900   -0.0290 H   0  0  0  0  0  0  0  0  0  0  0  0
   -2.1209   -1.4079   -0.0347 H   0  0  0  0  0  0  0  0  0  0  0  0
    1.9933   -1.5835    0.0262 H   0  0  0  0  0  0  0  0  0  0  0  0
  1  2  2  0
  2  3  1  0
  3  4  2  0
  4  5  1  0
  5  6  2  0
  6  1  1  0
  1  7  1  0
  2  8  1  0
  3  9  1  0
  4 10  1  0
  6 11  1  0
M  END
