
     RDKit          3D

 10 10  0  0  0  0  0  0  0  0999 V2000
   -0.4582   -1.1485    0.0142 C   0  0  0  0  0  0  0  0  0  0  0  0
   -1.1473    0.0417    0.0539 C   0  0  0  0  0  0  0  0  0  0  0  0
   -0.3731    1.1788    0.0248 C   0  0  0  0  0  0  0  0  0  0  0  0
    0.9714    1.1618   -0.0381 N   0  0  0  0  0  0  0  0  0  0  0  0
    1.5354   -0.0558   -0.0721 C   0  0  0  0  0  0  0  0  0  0  0  0
    0.8839   -1.2293   -0.0490 N   0  0  0  0  0  0  0  0  0  0  0  0
   -0.9800   -2.1008    0.0327 H   0  0  0  0  0  0  0  0  0  0  0  0
   -2.2259    0.0809    0.1046 H   0  0  0  0  0  0  0  0  0  0  0  0
   -0.8240    2.1664    0.0521 H   0  0  0  0  0  0  0  0  0  0  0  0
    2.6178   -0.0952   -0.1230 H   0  0  0  0  0  0  0  0  0  0  0  0
  1  2  2  0
  2  3  1  0
  3  4  2  0
  4  5  1  0
  5  6  2  0
  6  1  1  0
  1  7  1  0
  2  8  1  0
  3  9  1  0
  5 10  1  0
M  END
