
     RDKit          3D

 47 53  0  0  0  0  0  0  0  0999 V2000
    0.9520    3.7350    1.5778 O   0  0  0  0  0  0  0  0  0  0  0  0
    0.3263    2.7368    1.2191 C   0  0  0  0  0  0  0  0  0  0  0  0
   -1.2167    2.8241    1.0500 C   0  0  0  0  0  0  0  0  0  0  0  0
   -1.9041    1.5143    0.6306 C   0  0  0  0  0  0  0  0  0  0  0  0
   -3.1791    1.6584    0.0146 O   0  0  0  0  0  0  0  0  0  0  0  0
   -4.0534    0.5457    0.2992 C   0  0  0  0  0  0  0  0  0  0  0  0
   -3.4693   -0.8564    0.1644 C   0  0  0  0  0  0  0  0  0  0  0  0
   -2.3499   -1.2315   -0.4904 C   0  0  0  0  0  0  0  0  0  0  0  0
   -1.5589   -0.2286   -1.2784 C   0  0  0  0  0  0  0  0  0  0  0  0
   -0.9656    0.8168   -0.3533 C   0  0  0  0  0  0  0  0  0  0  0  0
    0.1376    0.3278    0.5700 C   0  0  0  0  0  0  0  0  0  0  0  0
    0.9205    1.5284    0.8632 N   0  0  0  0  0  0  0  0  0  0  0  0
    2.2082    1.3406    0.3322 C   0  0  0  0  0  0  0  0  0  0  0  0
    3.2409    2.2558    0.2446 C   0  0  0  0  0  0  0  0  0  0  0  0
    4.4158    1.8656   -0.4032 C   0  0  0  0  0  0  0  0  0  0  0  0
    4.5384    0.5812   -0.9559 C   0  0  0  0  0  0  0  0  0  0  0  0
    3.4900   -0.3372   -0.8669 C   0  0  0  0  0  0  0  0  0  0  0  0
    2.3243    0.0507   -0.2221 C   0  0  0  0  0  0  0  0  0  0  0  0
    1.0895   -0.7709    0.0404 C   0  0  0  0  0  0  0  0  0  0  0  0
    1.3551   -1.8308    1.1214 C   0  0  0  0  0  0  0  0  0  0  0  0
    0.0991   -2.6911    1.0754 C   0  0  0  0  0  0  0  0  0  0  0  0
   -0.3242   -2.6860   -0.3289 N   0  0  0  0  0  0  0  0  0  0  0  0
    0.4584   -1.6508   -1.0598 C   0  0  0  0  0  0  0  0  0  0  0  0
   -0.4051   -0.8770   -2.0474 C   0  0  0  0  0  0  0  0  0  0  0  0
   -1.7849   -2.6361   -0.5078 C   0  0  0  0  0  0  0  0  0  0  0  0
   -1.6481    3.1788    1.9929 H   0  0  0  0  0  0  0  0  0  0  0  0
   -1.4170    3.5965    0.2971 H   0  0  0  0  0  0  0  0  0  0  0  0
   -2.0465    0.9458    1.5609 H   0  0  0  0  0  0  0  0  0  0  0  0
   -4.9245    0.6356   -0.3578 H   0  0  0  0  0  0  0  0  0  0  0  0
   -4.4112    0.6746    1.3278 H   0  0  0  0  0  0  0  0  0  0  0  0
   -4.0382   -1.6199    0.6932 H   0  0  0  0  0  0  0  0  0  0  0  0
   -2.2194    0.2509   -2.0134 H   0  0  0  0  0  0  0  0  0  0  0  0
   -0.5737    1.5813   -1.0457 H   0  0  0  0  0  0  0  0  0  0  0  0
   -0.2718   -0.0024    1.5338 H   0  0  0  0  0  0  0  0  0  0  0  0
    3.1546    3.2550    0.6584 H   0  0  0  0  0  0  0  0  0  0  0  0
    5.2426    2.5678   -0.4824 H   0  0  0  0  0  0  0  0  0  0  0  0
    5.4633    0.2989   -1.4542 H   0  0  0  0  0  0  0  0  0  0  0  0
    3.6007   -1.3330   -1.2849 H   0  0  0  0  0  0  0  0  0  0  0  0
    1.5262   -1.4074    2.1174 H   0  0  0  0  0  0  0  0  0  0  0  0
    2.2326   -2.4400    0.8663 H   0  0  0  0  0  0  0  0  0  0  0  0
    0.3024   -3.7101    1.4196 H   0  0  0  0  0  0  0  0  0  0  0  0
   -0.6638   -2.2627    1.7366 H   0  0  0  0  0  0  0  0  0  0  0  0
    1.2469   -2.1717   -1.6175 H   0  0  0  0  0  0  0  0  0  0  0  0
    0.1939   -0.1161   -2.5633 H   0  0  0  0  0  0  0  0  0  0  0  0
   -0.7906   -1.5456   -2.8281 H   0  0  0  0  0  0  0  0  0  0  0  0
   -2.0229   -3.0868   -1.4801 H   0  0  0  0  0  0  0  0  0  0  0  0
   -2.2802   -3.2744    0.2346 H   0  0  0  0  0  0  0  0  0  0  0  0
  1  2  2  0
  2  3  1  0
  3  4  1  0
  4  5  1  0
  5  6  1  0
  6  7  1  0
  7  8  2  0
  8  9  1  0
  9 10  1  0
 10 11  1  0
 11 12  1  0
 12 13  1  0
 13 14  2  0
 14 15  1  0
 15 16  2  0
 16 17  1  0
 17 18  2  0
 18 19  1  0
 19 20  1  0
 20 21  1  0
 21 22  1  0
 22 23  1  0
 23 24  1  0
 22 25  1  0
 12  2  1  0
 18 13  1  0
 23 19  1  0
 10  4  1  0
 19 11  1  0
 25  8  1  0
 24  9  1  0
  3 26  1  0
  3 27  1  0
  4 28  1  0
  6 29  1  0
  6 30  1  0
  7 31  1  0
  9 32  1  0
 10 33  1  0
 11 34  1  0
 14 35  1  0
 15 36  1  0
 16 37  1  0
 17 38  1  0
 20 39  1  0
 20 40  1  0
 21 41  1  0
 21 42  1  0
 23 43  1  0
 24 44  1  0
 24 45  1  0
 25 46  1  0
 25 47  1  0
M  END
