
     RDKit          3D

 55 61  0  0  0  0  0  0  0  0999 V2000
    5.1026   -1.5476   -1.6735 C   0  0  0  0  0  0  0  0  0  0  0  0
    5.0305   -0.7376   -0.5096 O   0  0  0  0  0  0  0  0  0  0  0  0
    3.8010   -0.2371   -0.1522 C   0  0  0  0  0  0  0  0  0  0  0  0
    2.6197   -0.4724   -0.8684 C   0  0  0  0  0  0  0  0  0  0  0  0
    1.4354    0.0883   -0.4093 C   0  0  0  0  0  0  0  0  0  0  0  0
    1.4225    0.8824    0.7501 C   0  0  0  0  0  0  0  0  0  0  0  0
    2.5773    1.1242    1.4726 C   0  0  0  0  0  0  0  0  0  0  0  0
    3.7797    0.5652    1.0199 C   0  0  0  0  0  0  0  0  0  0  0  0
    4.9916    0.7330    1.6490 O   0  0  0  0  0  0  0  0  0  0  0  0
    5.0186    1.5462    2.8142 C   0  0  0  0  0  0  0  0  0  0  0  0
    0.1072    1.2752    1.0559 N   0  0  0  0  0  0  0  0  0  0  0  0
   -0.7863    0.6406    0.0870 C   0  0  0  0  0  0  0  0  0  0  0  0
    0.0683    0.0124   -1.0388 C   0  0  0  0  0  0  0  0  0  0  0  0
    0.0045    0.8674   -2.3147 C   0  0  0  0  0  0  0  0  0  0  0  0
   -1.3394    0.4831   -2.9196 C   0  0  0  0  0  0  0  0  0  0  0  0
   -1.5304   -0.9294   -2.5741 N   0  0  0  0  0  0  0  0  0  0  0  0
   -0.5023   -1.3201   -1.5703 C   0  0  0  0  0  0  0  0  0  0  0  0
   -1.0792   -2.2197   -0.4851 C   0  0  0  0  0  0  0  0  0  0  0  0
   -2.2342   -1.4800    0.1945 C   0  0  0  0  0  0  0  0  0  0  0  0
   -1.6493   -0.2868    0.9258 C   0  0  0  0  0  0  0  0  0  0  0  0
   -2.6202    0.6990    1.5746 C   0  0  0  0  0  0  0  0  0  0  0  0
   -1.8256    1.4704    2.6411 C   0  0  0  0  0  0  0  0  0  0  0  0
   -0.3560    1.8044    2.2587 C   0  0  0  0  0  0  0  0  0  0  0  0
    0.3447    2.4400    3.0470 O   0  0  0  0  0  0  0  0  0  0  0  0
   -3.7481   -0.0258    2.0519 O   0  0  0  0  0  0  0  0  0  0  0  0
   -4.8076   -0.0966    1.0740 C   0  0  0  0  0  0  0  0  0  0  0  0
   -4.4174   -0.4532   -0.3564 C   0  0  0  0  0  0  0  0  0  0  0  0
   -3.2749   -1.0285   -0.7879 C   0  0  0  0  0  0  0  0  0  0  0  0
   -2.9224   -1.2748   -2.2397 C   0  0  0  0  0  0  0  0  0  0  0  0
    4.8133   -0.9832   -2.5661 H   0  0  0  0  0  0  0  0  0  0  0  0
    6.1440   -1.8585   -1.8008 H   0  0  0  0  0  0  0  0  0  0  0  0
    4.4970   -2.4532   -1.5632 H   0  0  0  0  0  0  0  0  0  0  0  0
    2.6078   -1.0669   -1.7739 H   0  0  0  0  0  0  0  0  0  0  0  0
    2.5316    1.7302    2.3680 H   0  0  0  0  0  0  0  0  0  0  0  0
    4.4060    1.1135    3.6120 H   0  0  0  0  0  0  0  0  0  0  0  0
    6.0520    1.5815    3.1725 H   0  0  0  0  0  0  0  0  0  0  0  0
    4.7110    2.5725    2.5881 H   0  0  0  0  0  0  0  0  0  0  0  0
   -1.3841    1.4547   -0.3436 H   0  0  0  0  0  0  0  0  0  0  0  0
    0.8139    0.6001   -3.0072 H   0  0  0  0  0  0  0  0  0  0  0  0
    0.0759    1.9442   -2.1245 H   0  0  0  0  0  0  0  0  0  0  0  0
   -2.1271    1.1197   -2.4987 H   0  0  0  0  0  0  0  0  0  0  0  0
   -1.3422    0.6249   -4.0049 H   0  0  0  0  0  0  0  0  0  0  0  0
    0.2804   -1.8737   -2.1040 H   0  0  0  0  0  0  0  0  0  0  0  0
   -0.3033   -2.4826    0.2447 H   0  0  0  0  0  0  0  0  0  0  0  0
   -1.4292   -3.1668   -0.9158 H   0  0  0  0  0  0  0  0  0  0  0  0
   -2.6950   -2.1723    0.9120 H   0  0  0  0  0  0  0  0  0  0  0  0
   -1.0481   -0.7462    1.7289 H   0  0  0  0  0  0  0  0  0  0  0  0
   -2.9874    1.4613    0.8724 H   0  0  0  0  0  0  0  0  0  0  0  0
   -1.7936    0.8818    3.5663 H   0  0  0  0  0  0  0  0  0  0  0  0
   -2.3426    2.4074    2.8772 H   0  0  0  0  0  0  0  0  0  0  0  0
   -5.5420   -0.8229    1.4368 H   0  0  0  0  0  0  0  0  0  0  0  0
   -5.3006    0.8829    1.0648 H   0  0  0  0  0  0  0  0  0  0  0  0
   -5.1665   -0.1745   -1.0964 H   0  0  0  0  0  0  0  0  0  0  0  0
   -3.0664   -2.3428   -2.4489 H   0  0  0  0  0  0  0  0  0  0  0  0
   -3.6149   -0.7533   -2.9124 H   0  0  0  0  0  0  0  0  0  0  0  0
  1  2  1  0
  2  3  1  0
  3  4  2  0
  4  5  1  0
  5  6  2  0
  6  7  1  0
  7  8  2  0
  8  9  1  0
  9 10  1  0
  6 11  1  0
 11 12  1  0
 12 13  1  0
 13 14  1  0
 14 15  1  0
 15 16  1  0
 16 17  1  0
 17 18  1  0
 18 19  1  0
 19 20  1  0
 20 21  1  0
 21 22  1  0
 22 23  1  0
 23 24  2  0
 21 25  1  0
 25 26  1  0
 26 27  1  0
 27 28  2  0
 28 29  1  0
  8  3  1  0
 23 11  1  0
 13  5  1  0
 29 16  1  0
 20 12  1  0
 17 13  1  0
 28 19  1  0
  1 30  1  0
  1 31  1  0
  1 32  1  0
  4 33  1  0
  7 34  1  0
 10 35  1  0
 10 36  1  0
 10 37  1  0
 12 38  1  0
 14 39  1  0
 14 40  1  0
 15 41  1  0
 15 42  1  0
 17 43  1  0
 18 44  1  0
 18 45  1  0
 19 46  1  0
 20 47  1  0
 21 48  1  0
 22 49  1  0
 22 50  1  0
 26 51  1  0
 26 52  1  0
 27 53  1  0
 29 54  1  0
 29 55  1  0
M  END
