
     RDKit          3D

 46 48  0  0  0  0  0  0  0  0999 V2000
   -3.1423    2.5029   -0.1804 O   0  0  0  0  0  0  0  0  0  0  0  0
   -3.1218    1.3057    0.0976 C   0  0  0  0  0  0  0  0  0  0  0  0
   -4.2722    0.5297    0.2359 N   0  0  0  0  0  0  0  0  0  0  0  0
   -5.5410    1.2187   -0.0001 C   0  0  0  0  0  0  0  0  0  0  0  0
   -6.7087    0.5372    0.7060 C   0  0  0  0  0  0  0  0  0  0  0  0
   -6.7732   -0.9473    0.3666 C   0  0  0  0  0  0  0  0  0  0  0  0
   -5.4390   -1.6173    0.6747 C   0  0  0  0  0  0  0  0  0  0  0  0
   -4.2862   -0.9120   -0.0334 C   0  0  0  0  0  0  0  0  0  0  0  0
   -1.8255    0.6224    0.3453 C   0  0  0  0  0  0  0  0  0  0  0  0
   -0.7137    1.0680   -0.2580 C   0  0  0  0  0  0  0  0  0  0  0  0
    0.5891    0.4781   -0.0420 C   0  0  0  0  0  0  0  0  0  0  0  0
    1.6939    0.9242   -0.6608 C   0  0  0  0  0  0  0  0  0  0  0  0
    3.1079    0.3937   -0.5247 C   0  0  0  0  0  0  0  0  0  0  0  0
    4.0343    1.5266   -0.0495 C   0  0  0  0  0  0  0  0  0  0  0  0
    5.4904    1.0785   -0.0408 C   0  0  0  0  0  0  0  0  0  0  0  0
    5.7040   -0.1700    0.8167 C   0  0  0  0  0  0  0  0  0  0  0  0
    4.7142   -1.2816    0.5355 C   0  0  0  0  0  0  0  0  0  0  0  0
    3.2668   -0.8322    0.3928 C   0  0  0  0  0  0  0  0  0  0  0  0
    5.2164   -1.8515   -0.6765 O   0  0  0  0  0  0  0  0  0  0  0  0
    6.6378   -1.7301   -0.5449 C   0  0  0  0  0  0  0  0  0  0  0  0
    6.9583   -0.7653    0.4665 O   0  0  0  0  0  0  0  0  0  0  0  0
   -5.7070    1.2420   -1.0843 H   0  0  0  0  0  0  0  0  0  0  0  0
   -5.4747    2.2576    0.3424 H   0  0  0  0  0  0  0  0  0  0  0  0
   -7.6487    1.0260    0.4273 H   0  0  0  0  0  0  0  0  0  0  0  0
   -6.5936    0.6528    1.7911 H   0  0  0  0  0  0  0  0  0  0  0  0
   -7.0151   -1.0744   -0.6956 H   0  0  0  0  0  0  0  0  0  0  0  0
   -7.5733   -1.4272    0.9408 H   0  0  0  0  0  0  0  0  0  0  0  0
   -5.4722   -2.6701    0.3734 H   0  0  0  0  0  0  0  0  0  0  0  0
   -5.2668   -1.5959    1.7581 H   0  0  0  0  0  0  0  0  0  0  0  0
   -3.3480   -1.3869    0.2600 H   0  0  0  0  0  0  0  0  0  0  0  0
   -4.3745   -1.0342   -1.1203 H   0  0  0  0  0  0  0  0  0  0  0  0
   -1.8070   -0.1919    1.0559 H   0  0  0  0  0  0  0  0  0  0  0  0
   -0.7772    1.9132   -0.9429 H   0  0  0  0  0  0  0  0  0  0  0  0
    0.6416   -0.3553    0.6533 H   0  0  0  0  0  0  0  0  0  0  0  0
    1.5961    1.7566   -1.3594 H   0  0  0  0  0  0  0  0  0  0  0  0
    3.4216    0.0980   -1.5356 H   0  0  0  0  0  0  0  0  0  0  0  0
    3.7454    1.8549    0.9576 H   0  0  0  0  0  0  0  0  0  0  0  0
    3.9381    2.4001   -0.7067 H   0  0  0  0  0  0  0  0  0  0  0  0
    5.8229    0.9013   -1.0719 H   0  0  0  0  0  0  0  0  0  0  0  0
    6.1308    1.8869    0.3327 H   0  0  0  0  0  0  0  0  0  0  0  0
    5.7090    0.1027    1.8774 H   0  0  0  0  0  0  0  0  0  0  0  0
    4.7835   -2.0623    1.3041 H   0  0  0  0  0  0  0  0  0  0  0  0
    2.8823   -0.5961    1.3934 H   0  0  0  0  0  0  0  0  0  0  0  0
    2.6709   -1.6622   -0.0068 H   0  0  0  0  0  0  0  0  0  0  0  0
    7.0642   -1.4160   -1.5021 H   0  0  0  0  0  0  0  0  0  0  0  0
    7.0622   -2.6978   -0.2606 H   0  0  0  0  0  0  0  0  0  0  0  0
  1  2  2  0
  2  3  1  0
  3  4  1  0
  4  5  1  0
  5  6  1  0
  6  7  1  0
  7  8  1  0
  2  9  1  0
  9 10  2  3
 10 11  1  0
 11 12  2  3
 12 13  1  0
 13 14  1  0
 14 15  1  0
 15 16  1  0
 16 17  1  0
 17 18  1  0
 17 19  1  0
 19 20  1  0
 20 21  1  0
  8  3  1  0
 18 13  1  0
 21 16  1  0
  4 22  1  0
  4 23  1  0
  5 24  1  0
  5 25  1  0
  6 26  1  0
  6 27  1  0
  7 28  1  0
  7 29  1  0
  8 30  1  0
  8 31  1  0
  9 32  1  0
 10 33  1  0
 11 34  1  0
 12 35  1  0
 13 36  1  0
 14 37  1  0
 14 38  1  0
 15 39  1  0
 15 40  1  0
 16 41  1  0
 17 42  1  0
 18 43  1  0
 18 44  1  0
 20 45  1  0
 20 46  1  0
M  END
