
     RDKit          3D

134142  0  0  0  0  0  0  0  0999 V2000
   -2.1681    0.3165    4.8715 O   0  0  0  0  0  0  0  0  0  0  0  0
   -3.4291   -0.1426    5.3443 C   0  0  0  0  0  0  0  0  0  0  0  0
   -4.4971   -0.1589    4.2370 C   0  0  0  0  0  0  0  0  0  0  0  0
   -4.0072   -0.9102    3.1082 O   0  0  0  0  0  0  0  0  0  0  0  0
   -3.5722   -0.0616    2.0492 C   0  0  0  0  0  0  0  0  0  0  0  0
   -2.8178   -0.7938    1.0737 O   0  0  0  0  0  0  0  0  0  0  0  0
   -1.4888   -1.1441    1.5196 C   0  0  0  0  0  0  0  0  0  0  0  0
   -0.8950   -2.0516    0.4409 C   0  0  0  0  0  0  0  0  0  0  0  0
    0.6326   -2.2509    0.4580 C   0  0  0  0  0  0  0  0  0  0  0  0
    1.4249   -1.5227    1.5735 C   0  0  0  0  0  0  0  0  0  0  0  0
    0.8791   -0.0974    1.6440 C   0  0  0  0  0  0  0  0  0  0  0  0
    1.6494    1.0029    1.5372 C   0  0  0  0  0  0  0  0  0  0  0  0
    3.1136    0.9783    1.2645 C   0  0  0  0  0  0  0  0  0  0  0  0
    3.5252   -0.3089    0.5465 C   0  0  0  0  0  0  0  0  0  0  0  0
    2.9935   -1.5521    1.3229 C   0  0  0  0  0  0  0  0  0  0  0  0
    3.5282   -2.8882    0.7223 C   0  0  0  0  0  0  0  0  0  0  0  0
    5.0502   -2.9072    0.4726 C   0  0  0  0  0  0  0  0  0  0  0  0
    5.5110   -1.6801   -0.3299 C   0  0  0  0  0  0  0  0  0  0  0  0
    5.0482   -0.4191    0.4584 C   0  0  0  0  0  0  0  0  0  0  0  0
    5.9068    0.7599   -0.0555 C   0  0  0  0  0  0  0  0  0  0  0  0
    7.0815    0.0706   -0.7555 C   0  0  0  0  0  0  0  0  0  0  0  0
    7.0107   -1.3838   -0.2758 C   0  0  0  0  0  0  0  0  0  0  0  0
    8.1167   -1.9849   -1.1180 C   0  0  0  0  0  0  0  0  0  0  0  0
    8.5488   -3.3681   -0.6658 C   0  0  0  0  0  0  0  0  0  0  0  0
    9.2148   -0.8907   -0.9179 C   0  0  0  0  0  0  0  0  0  0  0  0
    8.4901    0.3573   -0.5114 N   0  0  0  0  0  0  0  0  0  0  0  0
    8.9520    1.5663   -1.1920 C   0  0  0  0  0  0  0  0  0  0  0  0
   10.4798    1.6361   -1.2065 C   0  0  0  0  0  0  0  0  0  0  0  0
   11.1228    0.4215   -1.9071 C   0  0  0  0  0  0  0  0  0  0  0  0
   10.1104   -0.7103   -2.1439 C   0  0  0  0  0  0  0  0  0  0  0  0
   11.7863    0.8226   -3.2235 C   0  0  0  0  0  0  0  0  0  0  0  0
    4.9752   -1.7680   -1.7757 C   0  0  0  0  0  0  0  0  0  0  0  0
   -0.6151    0.0983    1.7552 C   0  0  0  0  0  0  0  0  0  0  0  0
    1.2053   -2.2432    2.9306 C   0  0  0  0  0  0  0  0  0  0  0  0
   -4.8314    0.5709    1.3938 C   0  0  0  0  0  0  0  0  0  0  0  0
   -5.7328    1.2180    2.4805 C   0  0  0  0  0  0  0  0  0  0  0  0
   -5.0617    1.2374    3.8665 C   0  0  0  0  0  0  0  0  0  0  0  0
   -4.0634    2.2642    3.8783 O   0  0  0  0  0  0  0  0  0  0  0  0
   -6.0773    2.5917    2.1913 O   0  0  0  0  0  0  0  0  0  0  0  0
   -6.8922    2.7711    1.0302 C   0  0  0  0  0  0  0  0  0  0  0  0
   -6.0407    2.9160   -0.1028 O   0  0  0  0  0  0  0  0  0  0  0  0
   -6.7681    3.1124   -1.3274 C   0  0  0  0  0  0  0  0  0  0  0  0
   -5.7537    3.1583   -2.4819 C   0  0  0  0  0  0  0  0  0  0  0  0
   -4.8674    4.2709   -2.3517 O   0  0  0  0  0  0  0  0  0  0  0  0
   -7.6135    4.3935   -1.2735 C   0  0  0  0  0  0  0  0  0  0  0  0
   -8.4965    4.3947   -0.0186 C   0  0  0  0  0  0  0  0  0  0  0  0
   -7.6768    4.0837    1.2315 C   0  0  0  0  0  0  0  0  0  0  0  0
   -6.7869    5.2019    1.4549 O   0  0  0  0  0  0  0  0  0  0  0  0
   -9.1133    5.6874    0.1049 O   0  0  0  0  0  0  0  0  0  0  0  0
   -8.4608    4.4925   -2.4244 O   0  0  0  0  0  0  0  0  0  0  0  0
   -5.6770   -0.4272    0.7773 O   0  0  0  0  0  0  0  0  0  0  0  0
   -5.2590   -0.8522   -0.5243 C   0  0  0  0  0  0  0  0  0  0  0  0
   -6.2339   -0.3770   -1.4576 O   0  0  0  0  0  0  0  0  0  0  0  0
   -6.0141   -0.8447   -2.7944 C   0  0  0  0  0  0  0  0  0  0  0  0
   -7.1076   -0.2500   -3.6787 C   0  0  0  0  0  0  0  0  0  0  0  0
   -6.0337   -2.3770   -2.8663 C   0  0  0  0  0  0  0  0  0  0  0  0
   -5.0184   -2.9652   -1.8828 C   0  0  0  0  0  0  0  0  0  0  0  0
   -5.2296   -2.3953   -0.4866 C   0  0  0  0  0  0  0  0  0  0  0  0
   -6.4856   -2.9166    0.0155 O   0  0  0  0  0  0  0  0  0  0  0  0
   -5.1852   -4.3956   -1.8634 O   0  0  0  0  0  0  0  0  0  0  0  0
   -5.7133   -2.8308   -4.1874 O   0  0  0  0  0  0  0  0  0  0  0  0
   -1.5872    0.3982    5.6484 H   0  0  0  0  0  0  0  0  0  0  0  0
   -3.2696   -1.1599    5.7113 H   0  0  0  0  0  0  0  0  0  0  0  0
   -3.7426    0.4860    6.1811 H   0  0  0  0  0  0  0  0  0  0  0  0
   -5.3402   -0.7466    4.6166 H   0  0  0  0  0  0  0  0  0  0  0  0
   -2.9430    0.7466    2.4298 H   0  0  0  0  0  0  0  0  0  0  0  0
   -1.5989   -1.7114    2.4489 H   0  0  0  0  0  0  0  0  0  0  0  0
   -1.3868   -3.0326    0.5073 H   0  0  0  0  0  0  0  0  0  0  0  0
   -1.1854   -1.6781   -0.5518 H   0  0  0  0  0  0  0  0  0  0  0  0
    0.8278   -3.3316    0.5049 H   0  0  0  0  0  0  0  0  0  0  0  0
    1.0121   -1.9221   -0.5212 H   0  0  0  0  0  0  0  0  0  0  0  0
    1.1968    1.9883    1.6197 H   0  0  0  0  0  0  0  0  0  0  0  0
    3.3624    1.8391    0.6324 H   0  0  0  0  0  0  0  0  0  0  0  0
    3.6577    1.1033    2.2086 H   0  0  0  0  0  0  0  0  0  0  0  0
    3.0902   -0.2977   -0.4613 H   0  0  0  0  0  0  0  0  0  0  0  0
    3.4642   -1.4856    2.3182 H   0  0  0  0  0  0  0  0  0  0  0  0
    3.0215   -3.1038   -0.2250 H   0  0  0  0  0  0  0  0  0  0  0  0
    3.2814   -3.7213    1.3928 H   0  0  0  0  0  0  0  0  0  0  0  0
    5.3229   -3.8310   -0.0492 H   0  0  0  0  0  0  0  0  0  0  0  0
    5.5600   -2.9397    1.4439 H   0  0  0  0  0  0  0  0  0  0  0  0
    5.3874   -0.5443    1.5038 H   0  0  0  0  0  0  0  0  0  0  0  0
    5.3578    1.3975   -0.7596 H   0  0  0  0  0  0  0  0  0  0  0  0
    6.2411    1.3933    0.7749 H   0  0  0  0  0  0  0  0  0  0  0  0
    6.9013    0.1359   -1.8393 H   0  0  0  0  0  0  0  0  0  0  0  0
    7.3259   -1.4532    0.7820 H   0  0  0  0  0  0  0  0  0  0  0  0
    7.8163   -2.0298   -2.1735 H   0  0  0  0  0  0  0  0  0  0  0  0
    7.7329   -4.0870   -0.7868 H   0  0  0  0  0  0  0  0  0  0  0  0
    8.8508   -3.3756    0.3857 H   0  0  0  0  0  0  0  0  0  0  0  0
    9.3964   -3.7212   -1.2624 H   0  0  0  0  0  0  0  0  0  0  0  0
    9.8490   -1.1695   -0.0640 H   0  0  0  0  0  0  0  0  0  0  0  0
    8.5570    2.4451   -0.6680 H   0  0  0  0  0  0  0  0  0  0  0  0
    8.5846    1.6167   -2.2226 H   0  0  0  0  0  0  0  0  0  0  0  0
   10.7983    2.5743   -1.6743 H   0  0  0  0  0  0  0  0  0  0  0  0
   10.8418    1.6784   -0.1698 H   0  0  0  0  0  0  0  0  0  0  0  0
   11.9153    0.0395   -1.2482 H   0  0  0  0  0  0  0  0  0  0  0  0
   10.6440   -1.6425   -2.3630 H   0  0  0  0  0  0  0  0  0  0  0  0
    9.4946   -0.4901   -3.0267 H   0  0  0  0  0  0  0  0  0  0  0  0
   12.5955    1.5395   -3.0447 H   0  0  0  0  0  0  0  0  0  0  0  0
   11.0667    1.2908   -3.9034 H   0  0  0  0  0  0  0  0  0  0  0  0
   12.2165   -0.0500   -3.7275 H   0  0  0  0  0  0  0  0  0  0  0  0
    5.1390   -0.8557   -2.3541 H   0  0  0  0  0  0  0  0  0  0  0  0
    3.9005   -1.9520   -1.8164 H   0  0  0  0  0  0  0  0  0  0  0  0
    5.4582   -2.5926   -2.3116 H   0  0  0  0  0  0  0  0  0  0  0  0
   -0.8261    0.5091    2.7465 H   0  0  0  0  0  0  0  0  0  0  0  0
   -0.9217    0.8656    1.0277 H   0  0  0  0  0  0  0  0  0  0  0  0
    1.6188   -1.6521    3.7596 H   0  0  0  0  0  0  0  0  0  0  0  0
    1.7074   -3.2161    2.9402 H   0  0  0  0  0  0  0  0  0  0  0  0
    0.1604   -2.4485    3.1659 H   0  0  0  0  0  0  0  0  0  0  0  0
   -4.5111    1.2873    0.6338 H   0  0  0  0  0  0  0  0  0  0  0  0
   -6.6706    0.6531    2.5782 H   0  0  0  0  0  0  0  0  0  0  0  0
   -5.7915    1.5476    4.6250 H   0  0  0  0  0  0  0  0  0  0  0  0
   -4.4568    3.0352    3.4169 H   0  0  0  0  0  0  0  0  0  0  0  0
   -7.5782    1.9243    0.8979 H   0  0  0  0  0  0  0  0  0  0  0  0
   -7.4167    2.2418   -1.4945 H   0  0  0  0  0  0  0  0  0  0  0  0
   -5.1390    2.2515   -2.4741 H   0  0  0  0  0  0  0  0  0  0  0  0
   -6.2625    3.2366   -3.4469 H   0  0  0  0  0  0  0  0  0  0  0  0
   -4.2636    4.2345   -3.1134 H   0  0  0  0  0  0  0  0  0  0  0  0
   -6.9693    5.2834   -1.2631 H   0  0  0  0  0  0  0  0  0  0  0  0
   -9.3080    3.6684   -0.1343 H   0  0  0  0  0  0  0  0  0  0  0  0
   -8.3168    4.0270    2.1168 H   0  0  0  0  0  0  0  0  0  0  0  0
   -5.8853    4.8705    1.2611 H   0  0  0  0  0  0  0  0  0  0  0  0
   -8.4555    6.2368    0.5848 H   0  0  0  0  0  0  0  0  0  0  0  0
   -8.9667    5.3191   -2.2964 H   0  0  0  0  0  0  0  0  0  0  0  0
   -4.2847   -0.4443   -0.8100 H   0  0  0  0  0  0  0  0  0  0  0  0
   -5.0481   -0.4584   -3.1513 H   0  0  0  0  0  0  0  0  0  0  0  0
   -8.1010   -0.5551   -3.3284 H   0  0  0  0  0  0  0  0  0  0  0  0
   -6.9938   -0.5548   -4.7237 H   0  0  0  0  0  0  0  0  0  0  0  0
   -7.0867    0.8427   -3.6382 H   0  0  0  0  0  0  0  0  0  0  0  0
   -7.0368   -2.7536   -2.6340 H   0  0  0  0  0  0  0  0  0  0  0  0
   -3.9988   -2.7696   -2.2314 H   0  0  0  0  0  0  0  0  0  0  0  0
   -4.4628   -2.7607    0.2043 H   0  0  0  0  0  0  0  0  0  0  0  0
   -6.6802   -2.3491    0.7914 H   0  0  0  0  0  0  0  0  0  0  0  0
   -5.9243   -4.5461   -1.2383 H   0  0  0  0  0  0  0  0  0  0  0  0
   -5.6166   -3.7990   -4.1043 H   0  0  0  0  0  0  0  0  0  0  0  0
  1  2  1  0
  2  3  1  0
  3  4  1  0
  4  5  1  0
  5  6  1  0
  6  7  1  0
  7  8  1  0
  8  9  1  0
  9 10  1  0
 10 11  1  0
 11 12  2  0
 12 13  1  0
 13 14  1  0
 14 15  1  0
 15 16  1  0
 16 17  1  0
 17 18  1  0
 18 19  1  0
 19 20  1  0
 20 21  1  0
 21 22  1  0
 22 23  1  0
 23 24  1  0
 23 25  1  0
 25 26  1  0
 26 27  1  0
 27 28  1  0
 28 29  1  0
 29 30  1  0
 29 31  1  0
 18 32  1  0
 11 33  1  0
 10 34  1  0
  5 35  1  0
 35 36  1  0
 36 37  1  0
 37 38  1  0
 36 39  1  0
 39 40  1  0
 40 41  1  0
 41 42  1  0
 42 43  1  0
 43 44  1  0
 42 45  1  0
 45 46  1  0
 46 47  1  0
 47 48  1  0
 46 49  1  0
 45 50  1  0
 35 51  1  0
 51 52  1  0
 52 53  1  0
 53 54  1  0
 54 55  1  0
 54 56  1  0
 56 57  1  0
 57 58  1  0
 58 59  1  0
 57 60  1  0
 56 61  1  0
 37  3  1  0
 47 40  1  0
 58 52  1  0
 33  7  1  0
 15 10  1  0
 22 18  1  0
 30 25  1  0
 19 14  1  0
 26 21  1  0
  1 62  1  0
  2 63  1  0
  2 64  1  0
  3 65  1  0
  5 66  1  0
  7 67  1  0
  8 68  1  0
  8 69  1  0
  9 70  1  0
  9 71  1  0
 12 72  1  0
 13 73  1  0
 13 74  1  0
 14 75  1  0
 15 76  1  0
 16 77  1  0
 16 78  1  0
 17 79  1  0
 17 80  1  0
 19 81  1  0
 20 82  1  0
 20 83  1  0
 21 84  1  0
 22 85  1  0
 23 86  1  0
 24 87  1  0
 24 88  1  0
 24 89  1  0
 25 90  1  0
 27 91  1  0
 27 92  1  0
 28 93  1  0
 28 94  1  0
 29 95  1  0
 30 96  1  0
 30 97  1  0
 31 98  1  0
 31 99  1  0
 31100  1  0
 32101  1  0
 32102  1  0
 32103  1  0
 33104  1  0
 33105  1  0
 34106  1  0
 34107  1  0
 34108  1  0
 35109  1  0
 36110  1  0
 37111  1  0
 38112  1  0
 40113  1  0
 42114  1  0
 43115  1  0
 43116  1  0
 44117  1  0
 45118  1  0
 46119  1  0
 47120  1  0
 48121  1  0
 49122  1  0
 50123  1  0
 52124  1  0
 54125  1  0
 55126  1  0
 55127  1  0
 55128  1  0
 56129  1  0
 57130  1  0
 58131  1  0
 59132  1  0
 60133  1  0
 61134  1  0
M  END
