
     RDKit          3D

 57 60  0  0  0  0  0  0  0  0999 V2000
    0.0224   -0.8314    3.1240 O   0  0  0  0  0  0  0  0  0  0  0  0
    0.8429   -0.5479    2.2557 C   0  0  0  0  0  0  0  0  0  0  0  0
    0.7878   -1.1027    0.8344 C   0  0  0  0  0  0  0  0  0  0  0  0
    1.9692   -2.1301    0.6379 C   0  0  0  0  0  0  0  0  0  0  0  0
    3.3563   -1.6264    1.0981 C   0  0  0  0  0  0  0  0  0  0  0  0
    1.6713   -3.3973    1.4847 C   0  0  0  0  0  0  0  0  0  0  0  0
    2.0660   -2.5832   -0.8352 C   0  0  0  0  0  0  0  0  0  0  0  0
    2.0600   -1.4228   -1.8235 C   0  0  0  0  0  0  0  0  0  0  0  0
    0.7861   -0.5872   -1.6817 C   0  0  0  0  0  0  0  0  0  0  0  0
    0.5967    0.0224   -0.2597 C   0  0  0  0  0  0  0  0  0  0  0  0
    1.6699    1.1541   -0.0974 C   0  0  0  0  0  0  0  0  0  0  0  0
    1.4751    2.1897   -1.0761 O   0  0  0  0  0  0  0  0  0  0  0  0
    2.3343    3.2408   -0.9560 C   0  0  0  0  0  0  0  0  0  0  0  0
    3.2495    3.3169   -0.1491 O   0  0  0  0  0  0  0  0  0  0  0  0
    2.0048    4.2905   -1.9719 C   0  0  0  0  0  0  0  0  0  0  0  0
   -0.8666    0.6694   -0.2766 C   0  0  0  0  0  0  0  0  0  0  0  0
   -1.3875    1.3028    1.0449 C   0  0  0  0  0  0  0  0  0  0  0  0
   -0.4956    2.3089    1.4960 O   0  0  0  0  0  0  0  0  0  0  0  0
   -2.7915    1.9244    0.8923 C   0  0  0  0  0  0  0  0  0  0  0  0
   -3.7657    1.0164    0.1296 C   0  0  0  0  0  0  0  0  0  0  0  0
   -3.1779    0.7104   -1.2498 C   0  0  0  0  0  0  0  0  0  0  0  0
   -1.9760   -0.2170   -0.9176 C   0  0  0  0  0  0  0  0  0  0  0  0
   -1.5384   -0.9785   -2.1332 C   0  0  0  0  0  0  0  0  0  0  0  0
   -2.2772   -1.2392   -3.0754 O   0  0  0  0  0  0  0  0  0  0  0  0
   -0.2842   -1.4685   -2.0689 O   0  0  0  0  0  0  0  0  0  0  0  0
   -2.6819   -1.1204    0.0783 C   0  0  0  0  0  0  0  0  0  0  0  0
   -2.3913   -2.2717    0.3526 O   0  0  0  0  0  0  0  0  0  0  0  0
   -3.8068   -0.3640    0.7207 C   0  0  0  0  0  0  0  0  0  0  0  0
   -4.6637   -0.8906    1.5978 C   0  0  0  0  0  0  0  0  0  0  0  0
    1.6816    0.1258    2.4940 H   0  0  0  0  0  0  0  0  0  0  0  0
   -0.1230   -1.7056    0.7998 H   0  0  0  0  0  0  0  0  0  0  0  0
    4.1131   -2.4099    0.9656 H   0  0  0  0  0  0  0  0  0  0  0  0
    3.3680   -1.3659    2.1612 H   0  0  0  0  0  0  0  0  0  0  0  0
    3.7100   -0.7638    0.5356 H   0  0  0  0  0  0  0  0  0  0  0  0
    2.4331   -4.1690    1.3229 H   0  0  0  0  0  0  0  0  0  0  0  0
    0.7015   -3.8343    1.2206 H   0  0  0  0  0  0  0  0  0  0  0  0
    1.6554   -3.1723    2.5566 H   0  0  0  0  0  0  0  0  0  0  0  0
    1.2289   -3.2541   -1.0702 H   0  0  0  0  0  0  0  0  0  0  0  0
    2.9737   -3.1802   -0.9927 H   0  0  0  0  0  0  0  0  0  0  0  0
    2.9578   -0.8088   -1.7084 H   0  0  0  0  0  0  0  0  0  0  0  0
    2.1024   -1.8447   -2.8361 H   0  0  0  0  0  0  0  0  0  0  0  0
    0.8202    0.2050   -2.4408 H   0  0  0  0  0  0  0  0  0  0  0  0
    2.6765    0.7657   -0.2452 H   0  0  0  0  0  0  0  0  0  0  0  0
    1.6405    1.6027    0.8975 H   0  0  0  0  0  0  0  0  0  0  0  0
    2.1365    3.8860   -2.9785 H   0  0  0  0  0  0  0  0  0  0  0  0
    0.9783    4.6367   -1.8271 H   0  0  0  0  0  0  0  0  0  0  0  0
    2.6794    5.1421   -1.8449 H   0  0  0  0  0  0  0  0  0  0  0  0
   -0.7661    1.5189   -0.9699 H   0  0  0  0  0  0  0  0  0  0  0  0
   -1.4476    0.5443    1.8259 H   0  0  0  0  0  0  0  0  0  0  0  0
   -0.8054    2.6043    2.3729 H   0  0  0  0  0  0  0  0  0  0  0  0
   -2.7086    2.8899    0.3756 H   0  0  0  0  0  0  0  0  0  0  0  0
   -3.1892    2.1578    1.8885 H   0  0  0  0  0  0  0  0  0  0  0  0
   -4.7566    1.4739    0.0501 H   0  0  0  0  0  0  0  0  0  0  0  0
   -2.8759    1.6161   -1.7891 H   0  0  0  0  0  0  0  0  0  0  0  0
   -3.9282    0.2050   -1.8746 H   0  0  0  0  0  0  0  0  0  0  0  0
   -5.4757   -0.3076    2.0186 H   0  0  0  0  0  0  0  0  0  0  0  0
   -4.5688   -1.9258    1.9174 H   0  0  0  0  0  0  0  0  0  0  0  0
  1  2  2  0
  2  3  1  0
  3  4  1  0
  4  5  1  0
  4  6  1  0
  4  7  1  0
  7  8  1  0
  8  9  1  0
  9 10  1  0
 10 11  1  0
 11 12  1  0
 12 13  1  0
 13 14  2  0
 13 15  1  0
 10 16  1  0
 16 17  1  0
 17 18  1  0
 17 19  1  0
 19 20  1  0
 20 21  1  0
 21 22  1  0
 22 23  1  0
 23 24  2  0
 23 25  1  0
 22 26  1  0
 26 27  2  0
 26 28  1  0
 28 29  2  0
 10  3  1  0
 22 16  1  0
 25  9  1  0
 28 20  1  0
  2 30  1  0
  3 31  1  0
  5 32  1  0
  5 33  1  0
  5 34  1  0
  6 35  1  0
  6 36  1  0
  6 37  1  0
  7 38  1  0
  7 39  1  0
  8 40  1  0
  8 41  1  0
  9 42  1  0
 11 43  1  0
 11 44  1  0
 15 45  1  0
 15 46  1  0
 15 47  1  0
 16 48  1  0
 17 49  1  0
 18 50  1  0
 19 51  1  0
 19 52  1  0
 20 53  1  0
 21 54  1  0
 21 55  1  0
 29 56  1  0
 29 57  1  0
M  END
