
     RDKit          3D

 70 72  0  0  0  0  0  0  0  0999 V2000
   -4.6592    3.1403    2.8409 O   0  0  0  0  0  0  0  0  0  0  0  0
   -5.2955    1.8704    3.0061 C   0  0  0  0  0  0  0  0  0  0  0  0
   -5.4253    1.1286    1.6648 C   0  0  0  0  0  0  0  0  0  0  0  0
   -4.1050    0.8128    1.1918 O   0  0  0  0  0  0  0  0  0  0  0  0
   -4.1129    0.0415   -0.0097 C   0  0  0  0  0  0  0  0  0  0  0  0
   -2.7512   -0.2031   -0.3561 O   0  0  0  0  0  0  0  0  0  0  0  0
   -2.5807   -1.3945   -1.1230 C   0  0  0  0  0  0  0  0  0  0  0  0
   -2.5537   -2.5518   -0.2690 O   0  0  0  0  0  0  0  0  0  0  0  0
   -1.3400   -2.9102    0.2599 C   0  0  0  0  0  0  0  0  0  0  0  0
   -0.1548   -2.3659   -0.0605 C   0  0  0  0  0  0  0  0  0  0  0  0
   -0.0415   -1.2706   -1.0952 C   0  0  0  0  0  0  0  0  0  0  0  0
   -1.3158   -1.2361   -1.9386 C   0  0  0  0  0  0  0  0  0  0  0  0
   -1.2468   -1.0916   -3.2803 C   0  0  0  0  0  0  0  0  0  0  0  0
   -2.3713   -1.0262   -4.2651 C   0  0  0  0  0  0  0  0  0  0  0  0
    0.2086    0.0984   -0.4403 C   0  0  0  0  0  0  0  0  0  0  0  0
    1.6622    0.4844   -0.5135 C   0  0  0  0  0  0  0  0  0  0  0  0
    2.2402    0.7757   -1.5544 O   0  0  0  0  0  0  0  0  0  0  0  0
    2.2192    0.5014    0.7261 O   0  0  0  0  0  0  0  0  0  0  0  0
    3.5900    0.9302    0.7768 C   0  0  0  0  0  0  0  0  0  0  0  0
    4.5402   -0.2144    0.4211 C   0  0  0  0  0  0  0  0  0  0  0  0
    5.9792    0.2372    0.4124 C   0  0  0  0  0  0  0  0  0  0  0  0
    6.4742    0.9973   -0.6635 C   0  0  0  0  0  0  0  0  0  0  0  0
    7.7956    1.4556   -0.6710 C   0  0  0  0  0  0  0  0  0  0  0  0
    8.6220    1.1485    0.4024 C   0  0  0  0  0  0  0  0  0  0  0  0
    8.1377    0.3987    1.4721 C   0  0  0  0  0  0  0  0  0  0  0  0
    6.8265   -0.0578    1.4888 C   0  0  0  0  0  0  0  0  0  0  0  0
    8.9561    0.1169    2.5293 O   0  0  0  0  0  0  0  0  0  0  0  0
    9.9220    1.5701    0.4544 O   0  0  0  0  0  0  0  0  0  0  0  0
    1.1107   -2.8605    0.5370 C   0  0  0  0  0  0  0  0  0  0  0  0
    2.2109   -2.5636    0.0929 O   0  0  0  0  0  0  0  0  0  0  0  0
    0.8829   -3.6399    1.6248 O   0  0  0  0  0  0  0  0  0  0  0  0
    2.0677   -4.0755    2.2907 C   0  0  0  0  0  0  0  0  0  0  0  0
   -4.7752    0.8618   -1.1380 C   0  0  0  0  0  0  0  0  0  0  0  0
   -6.1926    1.2565   -0.7303 C   0  0  0  0  0  0  0  0  0  0  0  0
   -6.2111    1.9548    0.6347 C   0  0  0  0  0  0  0  0  0  0  0  0
   -7.5759    2.0981    1.0478 O   0  0  0  0  0  0  0  0  0  0  0  0
   -6.7555    2.1441   -1.7137 O   0  0  0  0  0  0  0  0  0  0  0  0
   -4.0376    2.0774   -1.4024 O   0  0  0  0  0  0  0  0  0  0  0  0
   -4.5284    3.5066    3.7329 H   0  0  0  0  0  0  0  0  0  0  0  0
   -6.2795    2.0361    3.4582 H   0  0  0  0  0  0  0  0  0  0  0  0
   -4.6790    1.2829    3.6958 H   0  0  0  0  0  0  0  0  0  0  0  0
   -5.9529    0.1869    1.8721 H   0  0  0  0  0  0  0  0  0  0  0  0
   -4.6447   -0.8992    0.1816 H   0  0  0  0  0  0  0  0  0  0  0  0
   -3.4420   -1.5382   -1.7804 H   0  0  0  0  0  0  0  0  0  0  0  0
   -1.4732   -3.7256    0.9621 H   0  0  0  0  0  0  0  0  0  0  0  0
    0.7927   -1.5254   -1.7655 H   0  0  0  0  0  0  0  0  0  0  0  0
   -0.2620   -0.9882   -3.7381 H   0  0  0  0  0  0  0  0  0  0  0  0
   -3.3501   -1.2362   -3.8304 H   0  0  0  0  0  0  0  0  0  0  0  0
   -2.2032   -1.7505   -5.0669 H   0  0  0  0  0  0  0  0  0  0  0  0
   -2.4059   -0.0286   -4.7102 H   0  0  0  0  0  0  0  0  0  0  0  0
   -0.1242    0.1207    0.6046 H   0  0  0  0  0  0  0  0  0  0  0  0
   -0.3347    0.9053   -0.9477 H   0  0  0  0  0  0  0  0  0  0  0  0
    3.7361    1.8058    0.1329 H   0  0  0  0  0  0  0  0  0  0  0  0
    3.7803    1.2652    1.8041 H   0  0  0  0  0  0  0  0  0  0  0  0
    4.2881   -0.6492   -0.5532 H   0  0  0  0  0  0  0  0  0  0  0  0
    4.4030   -1.0340    1.1371 H   0  0  0  0  0  0  0  0  0  0  0  0
    5.8241    1.2411   -1.5032 H   0  0  0  0  0  0  0  0  0  0  0  0
    8.1484    2.0417   -1.5127 H   0  0  0  0  0  0  0  0  0  0  0  0
    6.4752   -0.6369    2.3387 H   0  0  0  0  0  0  0  0  0  0  0  0
    9.8059    0.5413    2.2936 H   0  0  0  0  0  0  0  0  0  0  0  0
   10.1112    2.0526   -0.3690 H   0  0  0  0  0  0  0  0  0  0  0  0
    1.7693   -4.6282    3.1868 H   0  0  0  0  0  0  0  0  0  0  0  0
    2.6733   -3.2171    2.6011 H   0  0  0  0  0  0  0  0  0  0  0  0
    2.6455   -4.7425    1.6430 H   0  0  0  0  0  0  0  0  0  0  0  0
   -4.7848    0.3126   -2.0842 H   0  0  0  0  0  0  0  0  0  0  0  0
   -6.8392    0.3709   -0.7005 H   0  0  0  0  0  0  0  0  0  0  0  0
   -5.7925    2.9621    0.5329 H   0  0  0  0  0  0  0  0  0  0  0  0
   -8.0249    2.5400    0.2957 H   0  0  0  0  0  0  0  0  0  0  0  0
   -6.0158    2.7346   -1.9749 H   0  0  0  0  0  0  0  0  0  0  0  0
   -3.2604    2.0546   -0.7994 H   0  0  0  0  0  0  0  0  0  0  0  0
  1  2  1  0
  2  3  1  0
  3  4  1  0
  4  5  1  0
  5  6  1  0
  6  7  1  0
  7  8  1  0
  8  9  1  0
  9 10  2  0
 10 11  1  0
 11 12  1  0
 12 13  2  3
 13 14  1  0
 11 15  1  0
 15 16  1  0
 16 17  2  0
 16 18  1  0
 18 19  1  0
 19 20  1  0
 20 21  1  0
 21 22  2  0
 22 23  1  0
 23 24  2  0
 24 25  1  0
 25 26  2  0
 25 27  1  0
 24 28  1  0
 10 29  1  0
 29 30  2  0
 29 31  1  0
 31 32  1  0
  5 33  1  0
 33 34  1  0
 34 35  1  0
 35 36  1  0
 34 37  1  0
 33 38  1  0
 35  3  1  0
 12  7  1  0
 26 21  1  0
  1 39  1  0
  2 40  1  0
  2 41  1  0
  3 42  1  0
  5 43  1  0
  7 44  1  0
  9 45  1  0
 11 46  1  0
 13 47  1  0
 14 48  1  0
 14 49  1  0
 14 50  1  0
 15 51  1  0
 15 52  1  0
 19 53  1  0
 19 54  1  0
 20 55  1  0
 20 56  1  0
 22 57  1  0
 23 58  1  0
 26 59  1  0
 27 60  1  0
 28 61  1  0
 32 62  1  0
 32 63  1  0
 32 64  1  0
 33 65  1  0
 34 66  1  0
 35 67  1  0
 36 68  1  0
 37 69  1  0
 38 70  1  0
M  END
