
     RDKit          3D

 57 57  0  0  0  0  0  0  0  0999 V2000
    2.3249    0.2462   -2.4798 C   0  0  0  0  0  0  0  0  0  0  0  0
    1.4388    1.4933   -2.4072 C   0  0  0  0  0  0  0  0  0  0  0  0
   -0.0083    1.1369   -2.8210 C   0  0  0  0  0  0  0  0  0  0  0  0
   -0.5449    0.1450   -1.9367 O   0  0  0  0  0  0  0  0  0  0  0  0
   -1.9136   -0.1031   -2.2056 C   0  0  0  0  0  0  0  0  0  0  0  0
   -2.4183   -1.0868   -1.2592 N   0  0  0  0  0  0  0  0  0  0  0  0
   -2.5248   -0.4872    0.0890 C   0  0  0  0  0  0  0  0  0  0  0  0
   -2.8521   -1.6104    1.1491 C   0  0  0  0  0  0  0  0  0  0  0  0
   -3.4661   -2.9448    0.7225 C   0  0  0  0  0  0  0  0  0  0  0  0
   -1.6846   -1.8419    2.1132 C   0  0  0  0  0  0  0  0  0  0  0  0
   -4.1226   -0.5255    1.9244 S   0  0  0  0  0  0  0  0  0  0  0  0
   -3.8909    0.2786    0.2783 C   0  0  0  0  0  0  0  0  0  0  0  0
   -5.0858   -0.0016   -0.6330 C   0  0  0  0  0  0  0  0  0  0  0  0
   -3.6895    1.7873    0.4603 C   0  0  0  0  0  0  0  0  0  0  0  0
    1.3889    2.1024   -1.0672 N   0  0  0  0  0  0  0  0  0  0  0  0
    2.6532    2.6229   -0.5906 C   0  0  0  0  0  0  0  0  0  0  0  0
    3.4844    1.5983   -0.0684 O   0  0  0  0  0  0  0  0  0  0  0  0
    3.2551    1.3478    1.3218 C   0  0  0  0  0  0  0  0  0  0  0  0
    4.1920    0.2143    1.8021 C   0  0  0  0  0  0  0  0  0  0  0  0
    3.9831   -1.0974    1.0336 C   0  0  0  0  0  0  0  0  0  0  0  0
    2.6333   -1.6977    1.3070 C   0  0  0  0  0  0  0  0  0  0  0  0
    1.8058   -1.3236    2.1200 O   0  0  0  0  0  0  0  0  0  0  0  0
    2.3942   -2.7789    0.5390 O   0  0  0  0  0  0  0  0  0  0  0  0
    5.6054    0.6237    1.6317 N   0  0  0  0  0  0  0  0  0  0  0  0
    2.2212   -0.2423   -3.4549 H   0  0  0  0  0  0  0  0  0  0  0  0
    3.3830    0.4998   -2.3617 H   0  0  0  0  0  0  0  0  0  0  0  0
    2.0598   -0.4867   -1.7105 H   0  0  0  0  0  0  0  0  0  0  0  0
    1.8085    2.2357   -3.1252 H   0  0  0  0  0  0  0  0  0  0  0  0
   -0.6337    2.0384   -2.7910 H   0  0  0  0  0  0  0  0  0  0  0  0
   -0.0190    0.7448   -3.8452 H   0  0  0  0  0  0  0  0  0  0  0  0
   -2.0079   -0.5160   -3.2164 H   0  0  0  0  0  0  0  0  0  0  0  0
   -2.4929    0.8256   -2.1717 H   0  0  0  0  0  0  0  0  0  0  0  0
   -1.7457   -1.8519   -1.2908 H   0  0  0  0  0  0  0  0  0  0  0  0
   -1.6451    0.1075    0.3755 H   0  0  0  0  0  0  0  0  0  0  0  0
   -3.7974   -3.5240    1.5924 H   0  0  0  0  0  0  0  0  0  0  0  0
   -2.7283   -3.5568    0.1906 H   0  0  0  0  0  0  0  0  0  0  0  0
   -4.3282   -2.8281    0.0613 H   0  0  0  0  0  0  0  0  0  0  0  0
   -1.9906   -2.4480    2.9740 H   0  0  0  0  0  0  0  0  0  0  0  0
   -1.2714   -0.9021    2.4978 H   0  0  0  0  0  0  0  0  0  0  0  0
   -0.8718   -2.3734    1.6049 H   0  0  0  0  0  0  0  0  0  0  0  0
   -4.9212    0.4228   -1.6296 H   0  0  0  0  0  0  0  0  0  0  0  0
   -5.2830   -1.0686   -0.7649 H   0  0  0  0  0  0  0  0  0  0  0  0
   -6.0012    0.4543   -0.2364 H   0  0  0  0  0  0  0  0  0  0  0  0
   -3.4364    2.2611   -0.4945 H   0  0  0  0  0  0  0  0  0  0  0  0
   -4.5996    2.2699    0.8358 H   0  0  0  0  0  0  0  0  0  0  0  0
   -2.8782    2.0145    1.1617 H   0  0  0  0  0  0  0  0  0  0  0  0
    1.0401    1.4035   -0.4129 H   0  0  0  0  0  0  0  0  0  0  0  0
    3.1981    3.1214   -1.3997 H   0  0  0  0  0  0  0  0  0  0  0  0
    2.4725    3.3914    0.1705 H   0  0  0  0  0  0  0  0  0  0  0  0
    2.2057    1.0828    1.4849 H   0  0  0  0  0  0  0  0  0  0  0  0
    3.4650    2.2621    1.8914 H   0  0  0  0  0  0  0  0  0  0  0  0
    4.0173    0.0466    2.8714 H   0  0  0  0  0  0  0  0  0  0  0  0
    4.7329   -1.8351    1.3471 H   0  0  0  0  0  0  0  0  0  0  0  0
    4.0861   -0.9396   -0.0459 H   0  0  0  0  0  0  0  0  0  0  0  0
    1.5084   -3.0855    0.8230 H   0  0  0  0  0  0  0  0  0  0  0  0
    5.7245    0.8993    0.6519 H   0  0  0  0  0  0  0  0  0  0  0  0
    5.7710    1.4788    2.1620 H   0  0  0  0  0  0  0  0  0  0  0  0
  1  2  1  0
  2  3  1  0
  3  4  1  0
  4  5  1  0
  5  6  1  0
  6  7  1  0
  7  8  1  0
  8  9  1  0
  8 10  1  0
  8 11  1  0
 11 12  1  0
 12 13  1  0
 12 14  1  0
  2 15  1  0
 15 16  1  0
 16 17  1  0
 17 18  1  0
 18 19  1  0
 19 20  1  0
 20 21  1  0
 21 22  2  0
 21 23  1  0
 19 24  1  0
 12  7  1  0
  1 25  1  0
  1 26  1  0
  1 27  1  0
  2 28  1  0
  3 29  1  0
  3 30  1  0
  5 31  1  0
  5 32  1  0
  6 33  1  0
  7 34  1  0
  9 35  1  0
  9 36  1  0
  9 37  1  0
 10 38  1  0
 10 39  1  0
 10 40  1  0
 13 41  1  0
 13 42  1  0
 13 43  1  0
 14 44  1  0
 14 45  1  0
 14 46  1  0
 15 47  1  0
 16 48  1  0
 16 49  1  0
 18 50  1  0
 18 51  1  0
 19 52  1  0
 20 53  1  0
 20 54  1  0
 23 55  1  0
 24 56  1  0
 24 57  1  0
M  END
