
     RDKit          3D

 59 62  0  0  0  0  0  0  0  0999 V2000
   -1.0093   -1.5157   -3.4077 O   0  0  0  0  0  0  0  0  0  0  0  0
   -1.2968   -1.6457   -2.2211 C   0  0  0  0  0  0  0  0  0  0  0  0
   -1.8244   -0.4988   -1.3524 C   0  0  0  0  0  0  0  0  0  0  0  0
   -3.2835   -0.8923   -0.9012 C   0  0  0  0  0  0  0  0  0  0  0  0
   -4.1267    0.3384   -0.4911 C   0  0  0  0  0  0  0  0  0  0  0  0
   -4.0767   -1.5355   -2.0750 C   0  0  0  0  0  0  0  0  0  0  0  0
   -3.2246   -1.9134    0.2539 C   0  0  0  0  0  0  0  0  0  0  0  0
   -2.3136   -1.4869    1.4005 C   0  0  0  0  0  0  0  0  0  0  0  0
   -0.8853   -1.1386    0.9648 C   0  0  0  0  0  0  0  0  0  0  0  0
   -0.7862   -0.1179   -0.1984 C   0  0  0  0  0  0  0  0  0  0  0  0
   -1.1485    1.2846    0.3812 C   0  0  0  0  0  0  0  0  0  0  0  0
   -0.1924    1.6645    1.3838 O   0  0  0  0  0  0  0  0  0  0  0  0
   -0.4911    2.8037    2.0670 C   0  0  0  0  0  0  0  0  0  0  0  0
   -1.4697    3.5084    1.8688 O   0  0  0  0  0  0  0  0  0  0  0  0
    0.5583    3.0703    3.1018 C   0  0  0  0  0  0  0  0  0  0  0  0
    0.7204   -0.1393   -0.7570 C   0  0  0  0  0  0  0  0  0  0  0  0
    1.3295    1.2243   -1.1809 C   0  0  0  0  0  0  0  0  0  0  0  0
    0.5324    1.7713   -2.2209 O   0  0  0  0  0  0  0  0  0  0  0  0
    2.7873    1.0954   -1.6529 C   0  0  0  0  0  0  0  0  0  0  0  0
    3.6338    0.1752   -0.7551 C   0  0  0  0  0  0  0  0  0  0  0  0
    2.9891   -1.2089   -0.7498 C   0  0  0  0  0  0  0  0  0  0  0  0
    1.7137   -0.9753    0.0982 C   0  0  0  0  0  0  0  0  0  0  0  0
    1.1402   -2.3047    0.5255 C   0  0  0  0  0  0  0  0  0  0  0  0
    1.8218   -3.3042    0.7207 O   0  0  0  0  0  0  0  0  0  0  0  0
   -0.2153   -2.3579    0.6126 O   0  0  0  0  0  0  0  0  0  0  0  0
    2.3426   -0.1622    1.2118 C   0  0  0  0  0  0  0  0  0  0  0  0
    1.9115   -0.0840    2.3546 O   0  0  0  0  0  0  0  0  0  0  0  0
    3.5838    0.5832    0.7330 C   0  0  0  0  0  0  0  0  0  0  0  0
    4.8059    0.1282    1.5170 C   0  0  0  0  0  0  0  0  0  0  0  0
   -1.1808   -2.6249   -1.7278 H   0  0  0  0  0  0  0  0  0  0  0  0
   -1.8972    0.3629   -2.0310 H   0  0  0  0  0  0  0  0  0  0  0  0
   -3.9526    1.1822   -1.1676 H   0  0  0  0  0  0  0  0  0  0  0  0
   -3.9471    0.6680    0.5320 H   0  0  0  0  0  0  0  0  0  0  0  0
   -5.2000    0.1136   -0.5260 H   0  0  0  0  0  0  0  0  0  0  0  0
   -3.6563   -2.4970   -2.3882 H   0  0  0  0  0  0  0  0  0  0  0  0
   -5.1156   -1.7386   -1.7881 H   0  0  0  0  0  0  0  0  0  0  0  0
   -4.0953   -0.8700   -2.9455 H   0  0  0  0  0  0  0  0  0  0  0  0
   -2.8779   -2.8848   -0.1211 H   0  0  0  0  0  0  0  0  0  0  0  0
   -4.2332   -2.0907    0.6493 H   0  0  0  0  0  0  0  0  0  0  0  0
   -2.7581   -0.6381    1.9307 H   0  0  0  0  0  0  0  0  0  0  0  0
   -2.2753   -2.3121    2.1233 H   0  0  0  0  0  0  0  0  0  0  0  0
   -0.3941   -0.7580    1.8667 H   0  0  0  0  0  0  0  0  0  0  0  0
   -1.1770    2.0481   -0.4030 H   0  0  0  0  0  0  0  0  0  0  0  0
   -2.1195    1.2720    0.8681 H   0  0  0  0  0  0  0  0  0  0  0  0
    1.5370    3.1576    2.6231 H   0  0  0  0  0  0  0  0  0  0  0  0
    0.3357    4.0135    3.6087 H   0  0  0  0  0  0  0  0  0  0  0  0
    0.5614    2.2660    3.8415 H   0  0  0  0  0  0  0  0  0  0  0  0
    0.6801   -0.6858   -1.7032 H   0  0  0  0  0  0  0  0  0  0  0  0
    1.3216    1.9419   -0.3587 H   0  0  0  0  0  0  0  0  0  0  0  0
    0.9792    2.5614   -2.5731 H   0  0  0  0  0  0  0  0  0  0  0  0
    2.8070    0.7206   -2.6851 H   0  0  0  0  0  0  0  0  0  0  0  0
    3.2394    2.0945   -1.6964 H   0  0  0  0  0  0  0  0  0  0  0  0
    4.6590    0.1403   -1.1390 H   0  0  0  0  0  0  0  0  0  0  0  0
    2.7673   -1.5774   -1.7583 H   0  0  0  0  0  0  0  0  0  0  0  0
    3.6656   -1.9391   -0.2871 H   0  0  0  0  0  0  0  0  0  0  0  0
    3.4393    1.6624    0.8469 H   0  0  0  0  0  0  0  0  0  0  0  0
    4.9302   -0.9595    1.4912 H   0  0  0  0  0  0  0  0  0  0  0  0
    5.7156    0.5868    1.1167 H   0  0  0  0  0  0  0  0  0  0  0  0
    4.7156    0.4180    2.5696 H   0  0  0  0  0  0  0  0  0  0  0  0
  1  2  2  0
  2  3  1  0
  3  4  1  0
  4  5  1  0
  4  6  1  0
  4  7  1  0
  7  8  1  0
  8  9  1  0
  9 10  1  0
 10 11  1  0
 11 12  1  0
 12 13  1  0
 13 14  2  0
 13 15  1  0
 10 16  1  0
 16 17  1  0
 17 18  1  0
 17 19  1  0
 19 20  1  0
 20 21  1  0
 21 22  1  0
 22 23  1  0
 23 24  2  0
 23 25  1  0
 22 26  1  0
 26 27  2  0
 26 28  1  0
 28 29  1  0
 10  3  1  0
 22 16  1  0
 25  9  1  0
 28 20  1  0
  2 30  1  0
  3 31  1  0
  5 32  1  0
  5 33  1  0
  5 34  1  0
  6 35  1  0
  6 36  1  0
  6 37  1  0
  7 38  1  0
  7 39  1  0
  8 40  1  0
  8 41  1  0
  9 42  1  0
 11 43  1  0
 11 44  1  0
 15 45  1  0
 15 46  1  0
 15 47  1  0
 16 48  1  0
 17 49  1  0
 18 50  1  0
 19 51  1  0
 19 52  1  0
 20 53  1  0
 21 54  1  0
 21 55  1  0
 28 56  1  0
 29 57  1  0
 29 58  1  0
 29 59  1  0
M  END
