
     RDKit          3D

 60 63  0  0  0  0  0  0  0  0999 V2000
   -0.0924    4.6023    0.2368 C   0  0  0  0  0  0  0  0  0  0  0  0
   -0.9969    3.5513   -0.3289 C   0  0  0  0  0  0  0  0  0  0  0  0
   -2.0301    3.7782   -0.9408 O   0  0  0  0  0  0  0  0  0  0  0  0
   -0.4861    2.3118   -0.0795 O   0  0  0  0  0  0  0  0  0  0  0  0
   -1.3188    1.2236   -0.5098 C   0  0  0  0  0  0  0  0  0  0  0  0
   -0.7847   -0.1639   -0.0172 C   0  0  0  0  0  0  0  0  0  0  0  0
   -1.0180   -0.3500    1.5016 C   0  0  0  0  0  0  0  0  0  0  0  0
   -2.4910   -0.4791    1.8924 C   0  0  0  0  0  0  0  0  0  0  0  0
   -3.1842   -1.6310    1.1763 C   0  0  0  0  0  0  0  0  0  0  0  0
   -3.0604   -1.5788   -0.3623 C   0  0  0  0  0  0  0  0  0  0  0  0
   -1.5635   -1.3163   -0.8064 C   0  0  0  0  0  0  0  0  0  0  0  0
   -0.8048   -2.6443   -0.8399 C   0  0  0  0  0  0  0  0  0  0  0  0
   -0.5383   -3.3003   -1.8334 O   0  0  0  0  0  0  0  0  0  0  0  0
   -0.4884   -3.1181    0.3780 O   0  0  0  0  0  0  0  0  0  0  0  0
   -4.0244   -0.5071   -0.9281 C   0  0  0  0  0  0  0  0  0  0  0  0
   -3.5928   -2.9234   -0.9318 C   0  0  0  0  0  0  0  0  0  0  0  0
   -0.4796    0.7495    2.2500 O   0  0  0  0  0  0  0  0  0  0  0  0
    0.8226    1.0832    2.1164 C   0  0  0  0  0  0  0  0  0  0  0  0
    1.3349    1.8854    2.8939 O   0  0  0  0  0  0  0  0  0  0  0  0
    1.5916    0.4834    0.9588 C   0  0  0  0  0  0  0  0  0  0  0  0
    0.7870   -0.2108   -0.1960 C   0  0  0  0  0  0  0  0  0  0  0  0
    1.3268    0.2176   -1.5820 C   0  0  0  0  0  0  0  0  0  0  0  0
    0.7562   -0.5997   -2.5876 O   0  0  0  0  0  0  0  0  0  0  0  0
    2.8629    0.1170   -1.6476 C   0  0  0  0  0  0  0  0  0  0  0  0
    3.5697    0.6401   -0.3789 C   0  0  0  0  0  0  0  0  0  0  0  0
    2.6046    1.5220    0.4088 C   0  0  0  0  0  0  0  0  0  0  0  0
    3.8846   -0.4938    0.6269 C   0  0  0  0  0  0  0  0  0  0  0  0
    2.5952   -0.5558    1.4308 C   0  0  0  0  0  0  0  0  0  0  0  0
    2.3736   -1.3908    2.2984 O   0  0  0  0  0  0  0  0  0  0  0  0
    5.0591   -0.1761    1.5406 C   0  0  0  0  0  0  0  0  0  0  0  0
    0.0810    4.4112    1.2990 H   0  0  0  0  0  0  0  0  0  0  0  0
   -0.5691    5.5817    0.1378 H   0  0  0  0  0  0  0  0  0  0  0  0
    0.8525    4.6110   -0.3115 H   0  0  0  0  0  0  0  0  0  0  0  0
   -1.3614    1.2443   -1.6053 H   0  0  0  0  0  0  0  0  0  0  0  0
   -2.3170    1.4154   -0.1228 H   0  0  0  0  0  0  0  0  0  0  0  0
   -0.5074   -1.2474    1.8694 H   0  0  0  0  0  0  0  0  0  0  0  0
   -3.0236    0.4632    1.7243 H   0  0  0  0  0  0  0  0  0  0  0  0
   -2.5580   -0.6402    2.9765 H   0  0  0  0  0  0  0  0  0  0  0  0
   -4.2422   -1.6462    1.4686 H   0  0  0  0  0  0  0  0  0  0  0  0
   -2.7605   -2.5709    1.5520 H   0  0  0  0  0  0  0  0  0  0  0  0
   -1.5978   -1.0146   -1.8628 H   0  0  0  0  0  0  0  0  0  0  0  0
   -0.0464   -3.9755    0.1968 H   0  0  0  0  0  0  0  0  0  0  0  0
   -3.8132   -0.2994   -1.9826 H   0  0  0  0  0  0  0  0  0  0  0  0
   -5.0671   -0.8431   -0.8679 H   0  0  0  0  0  0  0  0  0  0  0  0
   -3.9995    0.4328   -0.3784 H   0  0  0  0  0  0  0  0  0  0  0  0
   -3.4934   -2.9544   -2.0228 H   0  0  0  0  0  0  0  0  0  0  0  0
   -4.6535   -3.0641   -0.6912 H   0  0  0  0  0  0  0  0  0  0  0  0
   -3.0687   -3.7894   -0.5142 H   0  0  0  0  0  0  0  0  0  0  0  0
    1.0465   -1.2743   -0.1354 H   0  0  0  0  0  0  0  0  0  0  0  0
    1.0358    1.2465   -1.8143 H   0  0  0  0  0  0  0  0  0  0  0  0
    1.1729   -0.3845   -3.4412 H   0  0  0  0  0  0  0  0  0  0  0  0
    3.1751   -0.9085   -1.8809 H   0  0  0  0  0  0  0  0  0  0  0  0
    3.1953    0.7126   -2.5085 H   0  0  0  0  0  0  0  0  0  0  0  0
    4.4807    1.1762   -0.6664 H   0  0  0  0  0  0  0  0  0  0  0  0
    2.1429    2.3045   -0.2004 H   0  0  0  0  0  0  0  0  0  0  0  0
    3.1431    2.0405    1.2128 H   0  0  0  0  0  0  0  0  0  0  0  0
    4.0473   -1.4488    0.1175 H   0  0  0  0  0  0  0  0  0  0  0  0
    4.8886    0.7297    2.1317 H   0  0  0  0  0  0  0  0  0  0  0  0
    5.9761   -0.0385    0.9589 H   0  0  0  0  0  0  0  0  0  0  0  0
    5.2268   -0.9956    2.2479 H   0  0  0  0  0  0  0  0  0  0  0  0
  1  2  1  0
  2  3  2  0
  2  4  1  0
  4  5  1  0
  5  6  1  0
  6  7  1  0
  7  8  1  0
  8  9  1  0
  9 10  1  0
 10 11  1  0
 11 12  1  0
 12 13  2  0
 12 14  1  0
 10 15  1  0
 10 16  1  0
  7 17  1  0
 17 18  1  0
 18 19  2  0
 18 20  1  0
 20 21  1  0
 21 22  1  0
 22 23  1  0
 22 24  1  0
 24 25  1  0
 25 26  1  0
 25 27  1  0
 27 28  1  0
 28 29  2  0
 27 30  1  0
 21  6  1  0
 11  6  1  0
 26 20  1  0
 28 20  1  0
  1 31  1  0
  1 32  1  0
  1 33  1  0
  5 34  1  0
  5 35  1  0
  7 36  1  0
  8 37  1  0
  8 38  1  0
  9 39  1  0
  9 40  1  0
 11 41  1  0
 14 42  1  0
 15 43  1  0
 15 44  1  0
 15 45  1  0
 16 46  1  0
 16 47  1  0
 16 48  1  0
 21 49  1  0
 22 50  1  0
 23 51  1  0
 24 52  1  0
 24 53  1  0
 25 54  1  0
 26 55  1  0
 26 56  1  0
 27 57  1  0
 30 58  1  0
 30 59  1  0
 30 60  1  0
M  END
