
     RDKit          3D

 63 66  0  0  0  0  0  0  0  0999 V2000
   -2.1173   -1.5780    3.8999 C   0  0  0  0  0  0  0  0  0  0  0  0
   -1.8993   -1.7163    2.4945 O   0  0  0  0  0  0  0  0  0  0  0  0
   -2.1079   -0.5731    1.7827 C   0  0  0  0  0  0  0  0  0  0  0  0
   -2.4131    0.5037    2.2706 O   0  0  0  0  0  0  0  0  0  0  0  0
   -1.8797   -0.8287    0.2944 C   0  0  0  0  0  0  0  0  0  0  0  0
   -3.2301   -0.8665   -0.5068 C   0  0  0  0  0  0  0  0  0  0  0  0
   -4.1343    0.3751   -0.3624 C   0  0  0  0  0  0  0  0  0  0  0  0
   -4.0747   -2.0708   -0.0086 C   0  0  0  0  0  0  0  0  0  0  0  0
   -2.9284   -1.1039   -2.0033 C   0  0  0  0  0  0  0  0  0  0  0  0
   -1.8726   -0.1544   -2.5596 C   0  0  0  0  0  0  0  0  0  0  0  0
   -0.5462   -0.2478   -1.7996 C   0  0  0  0  0  0  0  0  0  0  0  0
   -0.6694    0.0373   -0.2760 C   0  0  0  0  0  0  0  0  0  0  0  0
   -0.9124    1.5633   -0.0847 C   0  0  0  0  0  0  0  0  0  0  0  0
    0.0305    2.3095   -0.8698 O   0  0  0  0  0  0  0  0  0  0  0  0
    0.1805    3.6176   -0.5341 C   0  0  0  0  0  0  0  0  0  0  0  0
   -0.4448    4.2047    0.3387 O   0  0  0  0  0  0  0  0  0  0  0  0
    1.2448    4.2443   -1.3820 C   0  0  0  0  0  0  0  0  0  0  0  0
    0.6740   -0.4975    0.4380 C   0  0  0  0  0  0  0  0  0  0  0  0
    1.2485    0.3196    1.6355 C   0  0  0  0  0  0  0  0  0  0  0  0
    1.5535    1.6480    1.2504 O   0  0  0  0  0  0  0  0  0  0  0  0
    2.5560   -0.2762    2.1873 C   0  0  0  0  0  0  0  0  0  0  0  0
    3.5333   -0.7470    1.0866 C   0  0  0  0  0  0  0  0  0  0  0  0
    2.8157   -1.7960    0.2461 C   0  0  0  0  0  0  0  0  0  0  0  0
    1.7962   -0.9392   -0.5493 C   0  0  0  0  0  0  0  0  0  0  0  0
    1.2817   -1.7608   -1.7048 C   0  0  0  0  0  0  0  0  0  0  0  0
    1.9498   -2.6101   -2.2840 O   0  0  0  0  0  0  0  0  0  0  0  0
   -0.0217   -1.5669   -2.0216 O   0  0  0  0  0  0  0  0  0  0  0  0
    2.7186    0.2002   -0.9395 C   0  0  0  0  0  0  0  0  0  0  0  0
    2.5732    0.9098   -1.9271 O   0  0  0  0  0  0  0  0  0  0  0  0
    3.8773    0.3439    0.0460 C   0  0  0  0  0  0  0  0  0  0  0  0
    5.2009    0.0944   -0.6641 C   0  0  0  0  0  0  0  0  0  0  0  0
   -1.3599   -0.9178    4.3353 H   0  0  0  0  0  0  0  0  0  0  0  0
   -3.1254   -1.2009    4.1026 H   0  0  0  0  0  0  0  0  0  0  0  0
   -2.0210   -2.5680    4.3562 H   0  0  0  0  0  0  0  0  0  0  0  0
   -1.5203   -1.8688    0.2270 H   0  0  0  0  0  0  0  0  0  0  0  0
   -3.7284    1.2655   -0.8410 H   0  0  0  0  0  0  0  0  0  0  0  0
   -4.3482    0.6120    0.6833 H   0  0  0  0  0  0  0  0  0  0  0  0
   -5.1035    0.1986   -0.8460 H   0  0  0  0  0  0  0  0  0  0  0  0
   -4.3908   -1.9361    1.0313 H   0  0  0  0  0  0  0  0  0  0  0  0
   -4.9802   -2.1954   -0.6134 H   0  0  0  0  0  0  0  0  0  0  0  0
   -3.5109   -3.0084   -0.0686 H   0  0  0  0  0  0  0  0  0  0  0  0
   -3.8462   -1.0067   -2.5970 H   0  0  0  0  0  0  0  0  0  0  0  0
   -2.5852   -2.1362   -2.1517 H   0  0  0  0  0  0  0  0  0  0  0  0
   -1.7019   -0.4238   -3.6096 H   0  0  0  0  0  0  0  0  0  0  0  0
   -2.2434    0.8755   -2.5582 H   0  0  0  0  0  0  0  0  0  0  0  0
    0.1385    0.4496   -2.2927 H   0  0  0  0  0  0  0  0  0  0  0  0
   -1.8946    1.8602   -0.4429 H   0  0  0  0  0  0  0  0  0  0  0  0
   -0.8567    1.8529    0.9684 H   0  0  0  0  0  0  0  0  0  0  0  0
    1.0361    4.0594   -2.4387 H   0  0  0  0  0  0  0  0  0  0  0  0
    2.2227    3.8421   -1.1058 H   0  0  0  0  0  0  0  0  0  0  0  0
    1.2446    5.3261   -1.2202 H   0  0  0  0  0  0  0  0  0  0  0  0
    0.3815   -1.4472    0.9110 H   0  0  0  0  0  0  0  0  0  0  0  0
    0.5050    0.3700    2.4385 H   0  0  0  0  0  0  0  0  0  0  0  0
    1.5132    2.2145    2.0448 H   0  0  0  0  0  0  0  0  0  0  0  0
    3.0659    0.4610    2.8196 H   0  0  0  0  0  0  0  0  0  0  0  0
    2.3107   -1.1350    2.8249 H   0  0  0  0  0  0  0  0  0  0  0  0
    4.4327   -1.1578    1.5586 H   0  0  0  0  0  0  0  0  0  0  0  0
    2.3366   -2.5731    0.8531 H   0  0  0  0  0  0  0  0  0  0  0  0
    3.5322   -2.3076   -0.4096 H   0  0  0  0  0  0  0  0  0  0  0  0
    3.8836    1.3406    0.4950 H   0  0  0  0  0  0  0  0  0  0  0  0
    5.3982    0.8895   -1.3914 H   0  0  0  0  0  0  0  0  0  0  0  0
    5.2042   -0.8528   -1.2130 H   0  0  0  0  0  0  0  0  0  0  0  0
    6.0282    0.0797    0.0526 H   0  0  0  0  0  0  0  0  0  0  0  0
  1  2  1  0
  2  3  1  0
  3  4  2  0
  3  5  1  0
  5  6  1  0
  6  7  1  0
  6  8  1  0
  6  9  1  0
  9 10  1  0
 10 11  1  0
 11 12  1  0
 12 13  1  0
 13 14  1  0
 14 15  1  0
 15 16  2  0
 15 17  1  0
 12 18  1  0
 18 19  1  0
 19 20  1  0
 19 21  1  0
 21 22  1  0
 22 23  1  0
 23 24  1  0
 24 25  1  0
 25 26  2  0
 25 27  1  0
 24 28  1  0
 28 29  2  0
 28 30  1  0
 30 31  1  0
 12  5  1  0
 24 18  1  0
 27 11  1  0
 30 22  1  0
  1 32  1  0
  1 33  1  0
  1 34  1  0
  5 35  1  0
  7 36  1  0
  7 37  1  0
  7 38  1  0
  8 39  1  0
  8 40  1  0
  8 41  1  0
  9 42  1  0
  9 43  1  0
 10 44  1  0
 10 45  1  0
 11 46  1  0
 13 47  1  0
 13 48  1  0
 17 49  1  0
 17 50  1  0
 17 51  1  0
 18 52  1  0
 19 53  1  0
 20 54  1  0
 21 55  1  0
 21 56  1  0
 22 57  1  0
 23 58  1  0
 23 59  1  0
 30 60  1  0
 31 61  1  0
 31 62  1  0
 31 63  1  0
M  END
