
     RDKit          3D

 53 54  0  0  0  0  0  0  0  0999 V2000
    1.4852   -3.6082    2.4849 C   0  0  0  0  0  0  0  0  0  0  0  0
    0.6117   -2.9003    1.4583 C   0  0  0  0  0  0  0  0  0  0  0  0
    1.3584   -1.7943    0.6641 N   0  0  0  0  0  4  0  0  0  0  0  0
    1.7532   -0.6550    1.6659 C   0  0  0  0  0  0  0  0  0  0  0  0
    2.1574    0.6799    1.0776 C   0  0  0  0  0  0  0  0  0  0  0  0
    3.4424    0.8880    0.5512 C   0  0  0  0  0  0  0  0  0  0  0  0
    3.7965    2.1226   -0.0020 C   0  0  0  0  0  0  0  0  0  0  0  0
    2.8775    3.1677   -0.0161 C   0  0  0  0  0  0  0  0  0  0  0  0
    1.6122    2.9935    0.5343 C   0  0  0  0  0  0  0  0  0  0  0  0
    1.2570    1.7594    1.0851 C   0  0  0  0  0  0  0  0  0  0  0  0
    3.3085    4.6791   -0.7089 Cl  0  0  0  0  0  0  0  0  0  0  0  0
    0.3791   -1.2335   -0.4425 C   0  0  0  0  0  0  0  0  0  0  0  0
   -0.8606   -0.4584    0.0327 C   0  0  0  0  0  0  0  0  0  0  0  0
   -1.2306   -0.5076    1.2014 O   0  0  0  0  0  0  0  0  0  0  0  0
   -1.4411    0.2954   -0.9772 N   0  0  0  0  0  0  0  0  0  0  0  0
   -2.5863    1.1239   -0.8304 C   0  0  0  0  0  0  0  0  0  0  0  0
   -3.7331    0.7436   -0.0996 C   0  0  0  0  0  0  0  0  0  0  0  0
   -3.9539   -0.6151    0.5098 C   0  0  0  0  0  0  0  0  0  0  0  0
   -4.7912    1.6619    0.0418 C   0  0  0  0  0  0  0  0  0  0  0  0
   -4.7556    2.9039   -0.5798 C   0  0  0  0  0  0  0  0  0  0  0  0
   -3.6628    3.2491   -1.3632 C   0  0  0  0  0  0  0  0  0  0  0  0
   -2.5746    2.3724   -1.5044 C   0  0  0  0  0  0  0  0  0  0  0  0
   -1.4218    2.8289   -2.3618 C   0  0  0  0  0  0  0  0  0  0  0  0
    2.6270   -2.3269   -0.0296 C   0  0  0  0  0  0  0  0  0  0  0  0
    2.3927   -3.5464   -0.9100 C   0  0  0  0  0  0  0  0  0  0  0  0
    2.3372   -4.1194    2.0306 H   0  0  0  0  0  0  0  0  0  0  0  0
    1.8583   -2.9216    3.2493 H   0  0  0  0  0  0  0  0  0  0  0  0
    0.8914   -4.3708    3.0003 H   0  0  0  0  0  0  0  0  0  0  0  0
    0.2134   -3.6152    0.7310 H   0  0  0  0  0  0  0  0  0  0  0  0
   -0.2348   -2.4415    1.9732 H   0  0  0  0  0  0  0  0  0  0  0  0
    2.5865   -1.0392    2.2665 H   0  0  0  0  0  0  0  0  0  0  0  0
    0.9155   -0.5212    2.3591 H   0  0  0  0  0  0  0  0  0  0  0  0
    4.1981    0.1054    0.5819 H   0  0  0  0  0  0  0  0  0  0  0  0
    4.7956    2.2700   -0.4075 H   0  0  0  0  0  0  0  0  0  0  0  0
    0.9011    3.8176    0.5493 H   0  0  0  0  0  0  0  0  0  0  0  0
    0.2687    1.6667    1.5375 H   0  0  0  0  0  0  0  0  0  0  0  0
    0.0248   -2.0966   -1.0151 H   0  0  0  0  0  0  0  0  0  0  0  0
    0.9833   -0.5948   -1.0959 H   0  0  0  0  0  0  0  0  0  0  0  0
   -0.8368    0.5511   -1.7484 H   0  0  0  0  0  0  0  0  0  0  0  0
   -3.3995   -1.3951   -0.0198 H   0  0  0  0  0  0  0  0  0  0  0  0
   -5.0099   -0.9005    0.4349 H   0  0  0  0  0  0  0  0  0  0  0  0
   -3.6816   -0.6104    1.5690 H   0  0  0  0  0  0  0  0  0  0  0  0
   -5.6736    1.3958    0.6225 H   0  0  0  0  0  0  0  0  0  0  0  0
   -5.5893    3.5932   -0.4705 H   0  0  0  0  0  0  0  0  0  0  0  0
   -3.6637    4.2176   -1.8601 H   0  0  0  0  0  0  0  0  0  0  0  0
   -0.4935    2.8351   -1.7828 H   0  0  0  0  0  0  0  0  0  0  0  0
   -1.3116    2.1693   -3.2286 H   0  0  0  0  0  0  0  0  0  0  0  0
   -1.5743    3.8455   -2.7402 H   0  0  0  0  0  0  0  0  0  0  0  0
    3.0221   -1.5188   -0.6516 H   0  0  0  0  0  0  0  0  0  0  0  0
    3.3642   -2.5520    0.7480 H   0  0  0  0  0  0  0  0  0  0  0  0
    2.0318   -4.4089   -0.3444 H   0  0  0  0  0  0  0  0  0  0  0  0
    1.6897   -3.3417   -1.7214 H   0  0  0  0  0  0  0  0  0  0  0  0
    3.3396   -3.8430   -1.3742 H   0  0  0  0  0  0  0  0  0  0  0  0
  1  2  1  0
  2  3  1  0
  3  4  1  0
  4  5  1  0
  5  6  2  0
  6  7  1  0
  7  8  2  0
  8  9  1  0
  9 10  2  0
  8 11  1  0
  3 12  1  0
 12 13  1  0
 13 14  2  0
 13 15  1  0
 15 16  1  0
 16 17  2  0
 17 18  1  0
 17 19  1  0
 19 20  2  0
 20 21  1  0
 21 22  2  0
 22 23  1  0
  3 24  1  0
 24 25  1  0
 10  5  1  0
 22 16  1  0
  1 26  1  0
  1 27  1  0
  1 28  1  0
  2 29  1  0
  2 30  1  0
  4 31  1  0
  4 32  1  0
  6 33  1  0
  7 34  1  0
  9 35  1  0
 10 36  1  0
 12 37  1  0
 12 38  1  0
 15 39  1  0
 18 40  1  0
 18 41  1  0
 18 42  1  0
 19 43  1  0
 20 44  1  0
 21 45  1  0
 23 46  1  0
 23 47  1  0
 23 48  1  0
 24 49  1  0
 24 50  1  0
 25 51  1  0
 25 52  1  0
 25 53  1  0
M  CHG  1   3   1
M  END
