
     RDKit          3D

 37 37  0  0  0  0  0  0  0  0999 V2000
   -1.9067    2.2480    1.7147 Cl  0  0  0  0  0  0  0  0  0  0  0  0
   -2.6438    0.6454    1.6845 C   0  0  0  0  0  0  0  0  0  0  0  0
   -3.0116    0.2268    0.2605 N   0  0  0  0  0  4  0  0  0  0  0  0
   -1.7783    0.2939   -0.7008 C   0  0  0  0  0  0  0  0  0  0  0  0
   -0.4866   -0.3483   -0.1697 C   0  0  0  0  0  0  0  0  0  0  0  0
   -0.5438   -1.3637    0.5183 O   0  0  0  0  0  0  0  0  0  0  0  0
    0.6604    0.3524   -0.5004 N   0  0  0  0  0  0  0  0  0  0  0  0
    1.9812   -0.0355   -0.1484 C   0  0  0  0  0  0  0  0  0  0  0  0
    2.4514   -1.3629   -0.2559 C   0  0  0  0  0  0  0  0  0  0  0  0
    1.6694   -2.5055   -0.8469 C   0  0  0  0  0  0  0  0  0  0  0  0
    3.7611   -1.6614    0.1653 C   0  0  0  0  0  0  0  0  0  0  0  0
    4.6162   -0.6652    0.6212 C   0  0  0  0  0  0  0  0  0  0  0  0
    4.1787    0.6522    0.6595 C   0  0  0  0  0  0  0  0  0  0  0  0
    2.8695    0.9856    0.2753 C   0  0  0  0  0  0  0  0  0  0  0  0
    2.4629    2.4339    0.3700 C   0  0  0  0  0  0  0  0  0  0  0  0
   -4.1197    1.1106   -0.2932 C   0  0  0  0  0  0  0  0  0  0  0  0
   -3.5378   -1.2090    0.3230 C   0  0  0  0  0  0  0  0  0  0  0  0
   -1.9500   -0.0823    2.1129 H   0  0  0  0  0  0  0  0  0  0  0  0
   -3.5632    0.6619    2.2793 H   0  0  0  0  0  0  0  0  0  0  0  0
   -2.0678   -0.2161   -1.6265 H   0  0  0  0  0  0  0  0  0  0  0  0
   -1.6130    1.3514   -0.9330 H   0  0  0  0  0  0  0  0  0  0  0  0
    0.5486    1.3435   -0.6765 H   0  0  0  0  0  0  0  0  0  0  0  0
    1.1739   -3.0802   -0.0594 H   0  0  0  0  0  0  0  0  0  0  0  0
    2.3360   -3.1847   -1.3915 H   0  0  0  0  0  0  0  0  0  0  0  0
    0.9349   -2.1607   -1.5804 H   0  0  0  0  0  0  0  0  0  0  0  0
    4.1338   -2.6837    0.1125 H   0  0  0  0  0  0  0  0  0  0  0  0
    5.6290   -0.9144    0.9289 H   0  0  0  0  0  0  0  0  0  0  0  0
    4.8696    1.4205    1.0027 H   0  0  0  0  0  0  0  0  0  0  0  0
    1.5971    2.5441    1.0309 H   0  0  0  0  0  0  0  0  0  0  0  0
    2.2216    2.8251   -0.6235 H   0  0  0  0  0  0  0  0  0  0  0  0
    3.2657    3.0556    0.7810 H   0  0  0  0  0  0  0  0  0  0  0  0
   -4.4127    0.7189   -1.2722 H   0  0  0  0  0  0  0  0  0  0  0  0
   -4.9686    1.0823    0.3965 H   0  0  0  0  0  0  0  0  0  0  0  0
   -3.7490    2.1332   -0.4010 H   0  0  0  0  0  0  0  0  0  0  0  0
   -3.7227   -1.5558   -0.6978 H   0  0  0  0  0  0  0  0  0  0  0  0
   -2.8130   -1.8517    0.8244 H   0  0  0  0  0  0  0  0  0  0  0  0
   -4.4726   -1.2042    0.8928 H   0  0  0  0  0  0  0  0  0  0  0  0
  1  2  1  0
  2  3  1  0
  3  4  1  0
  4  5  1  0
  5  6  2  0
  5  7  1  0
  7  8  1  0
  8  9  2  0
  9 10  1  0
  9 11  1  0
 11 12  2  0
 12 13  1  0
 13 14  2  0
 14 15  1  0
  3 16  1  0
  3 17  1  0
 14  8  1  0
  2 18  1  0
  2 19  1  0
  4 20  1  0
  4 21  1  0
  7 22  1  0
 10 23  1  0
 10 24  1  0
 10 25  1  0
 11 26  1  0
 12 27  1  0
 13 28  1  0
 15 29  1  0
 15 30  1  0
 15 31  1  0
 16 32  1  0
 16 33  1  0
 16 34  1  0
 17 35  1  0
 17 36  1  0
 17 37  1  0
M  CHG  1   3   1
M  END
