
     RDKit          3D

 40 40  0  0  0  0  0  0  0  0999 V2000
   -5.2339    2.2484   -0.3333 Br  0  0  0  0  0  0  0  0  0  0  0  0
   -4.0270    1.5250    1.0166 C   0  0  0  0  0  0  0  0  0  0  0  0
   -2.7176    1.0440    0.3916 C   0  0  0  0  0  0  0  0  0  0  0  0
   -2.6961   -0.4486   -0.0458 N   0  0  0  0  0  4  0  0  0  0  0  0
   -1.3236   -0.7338   -0.7727 C   0  0  0  0  0  0  0  0  0  0  0  0
   -0.0414   -0.4658    0.0327 C   0  0  0  0  0  0  0  0  0  0  0  0
   -0.0613   -0.4258    1.2585 O   0  0  0  0  0  0  0  0  0  0  0  0
    1.0775   -0.3169   -0.7722 N   0  0  0  0  0  0  0  0  0  0  0  0
    2.3846   -0.0043   -0.3097 C   0  0  0  0  0  0  0  0  0  0  0  0
    3.4719   -0.6716   -0.9295 C   0  0  0  0  0  0  0  0  0  0  0  0
    3.2887   -1.6854   -2.0297 C   0  0  0  0  0  0  0  0  0  0  0  0
    4.7832   -0.4174   -0.4946 C   0  0  0  0  0  0  0  0  0  0  0  0
    5.0287    0.4866    0.5302 C   0  0  0  0  0  0  0  0  0  0  0  0
    3.9690    1.1742    1.1093 C   0  0  0  0  0  0  0  0  0  0  0  0
    2.6436    0.9690    0.6808 C   0  0  0  0  0  0  0  0  0  0  0  0
    1.6044    1.8657    1.2980 C   0  0  0  0  0  0  0  0  0  0  0  0
   -3.7999   -0.7760   -1.0448 C   0  0  0  0  0  0  0  0  0  0  0  0
   -2.8321   -1.3757    1.1661 C   0  0  0  0  0  0  0  0  0  0  0  0
   -4.5724    0.7568    1.5669 H   0  0  0  0  0  0  0  0  0  0  0  0
   -3.8346    2.3688    1.6861 H   0  0  0  0  0  0  0  0  0  0  0  0
   -2.4389    1.6341   -0.4891 H   0  0  0  0  0  0  0  0  0  0  0  0
   -1.9257    1.1537    1.1381 H   0  0  0  0  0  0  0  0  0  0  0  0
   -1.3354   -1.7898   -1.0656 H   0  0  0  0  0  0  0  0  0  0  0  0
   -1.3243   -0.1074   -1.6724 H   0  0  0  0  0  0  0  0  0  0  0  0
    1.0503   -0.7895   -1.6673 H   0  0  0  0  0  0  0  0  0  0  0  0
    4.2403   -2.1384   -2.3283 H   0  0  0  0  0  0  0  0  0  0  0  0
    2.6344   -2.4969   -1.6949 H   0  0  0  0  0  0  0  0  0  0  0  0
    2.8607   -1.2077   -2.9168 H   0  0  0  0  0  0  0  0  0  0  0  0
    5.6285   -0.9334   -0.9471 H   0  0  0  0  0  0  0  0  0  0  0  0
    6.0466    0.6688    0.8667 H   0  0  0  0  0  0  0  0  0  0  0  0
    4.1864    1.9016    1.8906 H   0  0  0  0  0  0  0  0  0  0  0  0
    2.0271    2.8559    1.5063 H   0  0  0  0  0  0  0  0  0  0  0  0
    1.2475    1.4475    2.2433 H   0  0  0  0  0  0  0  0  0  0  0  0
    0.7632    2.0405    0.6212 H   0  0  0  0  0  0  0  0  0  0  0  0
   -3.6555   -1.8047   -1.3898 H   0  0  0  0  0  0  0  0  0  0  0  0
   -4.7684   -0.6960   -0.5462 H   0  0  0  0  0  0  0  0  0  0  0  0
   -3.7240   -0.0816   -1.8859 H   0  0  0  0  0  0  0  0  0  0  0  0
   -3.8795   -1.3844    1.4804 H   0  0  0  0  0  0  0  0  0  0  0  0
   -2.5306   -2.3834    0.8666 H   0  0  0  0  0  0  0  0  0  0  0  0
   -2.2144   -1.0058    1.9857 H   0  0  0  0  0  0  0  0  0  0  0  0
  1  2  1  0
  2  3  1  0
  3  4  1  0
  4  5  1  0
  5  6  1  0
  6  7  2  0
  6  8  1  0
  8  9  1  0
  9 10  2  0
 10 11  1  0
 10 12  1  0
 12 13  2  0
 13 14  1  0
 14 15  2  0
 15 16  1  0
  4 17  1  0
  4 18  1  0
 15  9  1  0
  2 19  1  0
  2 20  1  0
  3 21  1  0
  3 22  1  0
  5 23  1  0
  5 24  1  0
  8 25  1  0
 11 26  1  0
 11 27  1  0
 11 28  1  0
 12 29  1  0
 13 30  1  0
 14 31  1  0
 16 32  1  0
 16 33  1  0
 16 34  1  0
 17 35  1  0
 17 36  1  0
 17 37  1  0
 18 38  1  0
 18 39  1  0
 18 40  1  0
M  CHG  1   4   1
M  END
