
     RDKit          3D

 46 46  0  0  0  0  0  0  0  0999 V2000
   -4.7400    3.4952    1.6034 I   0  0  0  0  0  0  0  0  0  0  0  0
   -5.7229    1.9919    0.4411 C   0  0  0  0  0  0  0  0  0  0  0  0
   -5.0423    0.6267    0.5805 C   0  0  0  0  0  0  0  0  0  0  0  0
   -3.7066    0.5315   -0.1727 C   0  0  0  0  0  0  0  0  0  0  0  0
   -3.0751   -0.8487    0.0246 C   0  0  0  0  0  0  0  0  0  0  0  0
   -1.7211   -1.0166   -0.6895 N   0  0  0  0  0  4  0  0  0  0  0  0
   -0.6647   -0.0098   -0.1153 C   0  0  0  0  0  0  0  0  0  0  0  0
    0.7901   -0.1870   -0.5837 C   0  0  0  0  0  0  0  0  0  0  0  0
    1.0471   -0.7051   -1.6655 O   0  0  0  0  0  0  0  0  0  0  0  0
    1.7113    0.3244    0.3178 N   0  0  0  0  0  0  0  0  0  0  0  0
    3.1237    0.2566    0.1748 C   0  0  0  0  0  0  0  0  0  0  0  0
    3.8724    1.4008    0.5520 C   0  0  0  0  0  0  0  0  0  0  0  0
    3.2314    2.6604    1.0761 C   0  0  0  0  0  0  0  0  0  0  0  0
    5.2698    1.3960    0.4095 C   0  0  0  0  0  0  0  0  0  0  0  0
    5.9288    0.2802   -0.0889 C   0  0  0  0  0  0  0  0  0  0  0  0
    5.2022   -0.8576   -0.4184 C   0  0  0  0  0  0  0  0  0  0  0  0
    3.8035   -0.9021   -0.2619 C   0  0  0  0  0  0  0  0  0  0  0  0
    3.1509   -2.2305   -0.5340 C   0  0  0  0  0  0  0  0  0  0  0  0
   -1.2403   -2.4509   -0.4299 C   0  0  0  0  0  0  0  0  0  0  0  0
   -1.8724   -0.8327   -2.2006 C   0  0  0  0  0  0  0  0  0  0  0  0
   -5.7617    2.2933   -0.6113 H   0  0  0  0  0  0  0  0  0  0  0  0
   -6.7583    1.9087    0.7905 H   0  0  0  0  0  0  0  0  0  0  0  0
   -5.7206   -0.1344    0.1740 H   0  0  0  0  0  0  0  0  0  0  0  0
   -4.8940    0.3807    1.6392 H   0  0  0  0  0  0  0  0  0  0  0  0
   -3.8881    0.7239   -1.2355 H   0  0  0  0  0  0  0  0  0  0  0  0
   -3.0283    1.3075    0.1893 H   0  0  0  0  0  0  0  0  0  0  0  0
   -3.7403   -1.6301   -0.3624 H   0  0  0  0  0  0  0  0  0  0  0  0
   -2.8970   -1.0428    1.0892 H   0  0  0  0  0  0  0  0  0  0  0  0
   -0.7125   -0.1104    0.9748 H   0  0  0  0  0  0  0  0  0  0  0  0
   -0.9836    0.9952   -0.4075 H   0  0  0  0  0  0  0  0  0  0  0  0
    1.3844    1.0812    0.9058 H   0  0  0  0  0  0  0  0  0  0  0  0
    3.9691    3.4522    1.2456 H   0  0  0  0  0  0  0  0  0  0  0  0
    2.5026    3.0454    0.3554 H   0  0  0  0  0  0  0  0  0  0  0  0
    2.7366    2.4634    2.0325 H   0  0  0  0  0  0  0  0  0  0  0  0
    5.8585    2.2718    0.6775 H   0  0  0  0  0  0  0  0  0  0  0  0
    7.0100    0.2902   -0.2056 H   0  0  0  0  0  0  0  0  0  0  0  0
    5.7415   -1.7324   -0.7795 H   0  0  0  0  0  0  0  0  0  0  0  0
    2.2445   -2.3683    0.0624 H   0  0  0  0  0  0  0  0  0  0  0  0
    3.8195   -3.0519   -0.2498 H   0  0  0  0  0  0  0  0  0  0  0  0
    2.9226   -2.3367   -1.5982 H   0  0  0  0  0  0  0  0  0  0  0  0
   -0.3202   -2.6392   -0.9865 H   0  0  0  0  0  0  0  0  0  0  0  0
   -2.0208   -3.1392   -0.7685 H   0  0  0  0  0  0  0  0  0  0  0  0
   -1.0696   -2.5646    0.6447 H   0  0  0  0  0  0  0  0  0  0  0  0
   -1.9793    0.2335   -2.4157 H   0  0  0  0  0  0  0  0  0  0  0  0
   -0.9981   -1.2384   -2.7127 H   0  0  0  0  0  0  0  0  0  0  0  0
   -2.7629   -1.3812   -2.5222 H   0  0  0  0  0  0  0  0  0  0  0  0
  1  2  1  0
  2  3  1  0
  3  4  1  0
  4  5  1  0
  5  6  1  0
  6  7  1  0
  7  8  1  0
  8  9  2  0
  8 10  1  0
 10 11  1  0
 11 12  2  0
 12 13  1  0
 12 14  1  0
 14 15  2  0
 15 16  1  0
 16 17  2  0
 17 18  1  0
  6 19  1  0
  6 20  1  0
 17 11  1  0
  2 21  1  0
  2 22  1  0
  3 23  1  0
  3 24  1  0
  4 25  1  0
  4 26  1  0
  5 27  1  0
  5 28  1  0
  7 29  1  0
  7 30  1  0
 10 31  1  0
 13 32  1  0
 13 33  1  0
 13 34  1  0
 14 35  1  0
 15 36  1  0
 16 37  1  0
 18 38  1  0
 18 39  1  0
 18 40  1  0
 19 41  1  0
 19 42  1  0
 19 43  1  0
 20 44  1  0
 20 45  1  0
 20 46  1  0
M  CHG  1   6   1
M  END
