
     RDKit          3D

 49 49  0  0  0  0  0  0  0  0999 V2000
    3.1627   -2.5930    1.8103 Cl  0  0  0  0  0  0  0  0  0  0  0  0
    3.8354   -1.2018    2.6953 C   0  0  0  0  0  0  0  0  0  0  0  0
    2.9077    0.0112    2.6596 C   0  0  0  0  0  0  0  0  0  0  0  0
    2.9213    0.8290    1.3593 C   0  0  0  0  0  0  0  0  0  0  0  0
    2.3571    0.0976    0.1385 C   0  0  0  0  0  0  0  0  0  0  0  0
    2.1139    1.0622   -1.0236 C   0  0  0  0  0  0  0  0  0  0  0  0
    1.5499    0.3680   -2.2814 N   0  0  0  0  0  4  0  0  0  0  0  0
    0.2325   -0.4278   -1.9893 C   0  0  0  0  0  0  0  0  0  0  0  0
   -0.8669    0.3249   -1.2210 C   0  0  0  0  0  0  0  0  0  0  0  0
   -0.9842    1.5423   -1.3187 O   0  0  0  0  0  0  0  0  0  0  0  0
   -1.6730   -0.5157   -0.4691 N   0  0  0  0  0  0  0  0  0  0  0  0
   -2.7222   -0.0964    0.3924 C   0  0  0  0  0  0  0  0  0  0  0  0
   -3.9053   -0.8786    0.4054 C   0  0  0  0  0  0  0  0  0  0  0  0
   -4.0839   -2.1040   -0.4542 C   0  0  0  0  0  0  0  0  0  0  0  0
   -4.9825   -0.4979    1.2226 C   0  0  0  0  0  0  0  0  0  0  0  0
   -4.9002    0.6323    2.0247 C   0  0  0  0  0  0  0  0  0  0  0  0
   -3.7267    1.3764    2.0463 C   0  0  0  0  0  0  0  0  0  0  0  0
   -2.6145    1.0098    1.2645 C   0  0  0  0  0  0  0  0  0  0  0  0
   -1.3645    1.8209    1.4745 C   0  0  0  0  0  0  0  0  0  0  0  0
    1.2614    1.4600   -3.3236 C   0  0  0  0  0  0  0  0  0  0  0  0
    2.5715   -0.5890   -2.8860 C   0  0  0  0  0  0  0  0  0  0  0  0
    3.9794   -1.5296    3.7293 H   0  0  0  0  0  0  0  0  0  0  0  0
    4.8159   -0.9670    2.2703 H   0  0  0  0  0  0  0  0  0  0  0  0
    3.2253    0.6882    3.4633 H   0  0  0  0  0  0  0  0  0  0  0  0
    1.8801   -0.2868    2.9018 H   0  0  0  0  0  0  0  0  0  0  0  0
    2.3280    1.7355    1.5358 H   0  0  0  0  0  0  0  0  0  0  0  0
    3.9439    1.1632    1.1455 H   0  0  0  0  0  0  0  0  0  0  0  0
    3.0694   -0.6701   -0.1729 H   0  0  0  0  0  0  0  0  0  0  0  0
    1.4249   -0.3971    0.4258 H   0  0  0  0  0  0  0  0  0  0  0  0
    3.0519    1.5445   -1.3251 H   0  0  0  0  0  0  0  0  0  0  0  0
    1.4117    1.8496   -0.7322 H   0  0  0  0  0  0  0  0  0  0  0  0
    0.5277   -1.3227   -1.4308 H   0  0  0  0  0  0  0  0  0  0  0  0
   -0.1701   -0.7422   -2.9588 H   0  0  0  0  0  0  0  0  0  0  0  0
   -1.7553   -1.4690   -0.8005 H   0  0  0  0  0  0  0  0  0  0  0  0
   -3.3741   -2.8821   -0.1555 H   0  0  0  0  0  0  0  0  0  0  0  0
   -3.9358   -1.8538   -1.5099 H   0  0  0  0  0  0  0  0  0  0  0  0
   -5.0911   -2.5244   -0.3594 H   0  0  0  0  0  0  0  0  0  0  0  0
   -5.9044   -1.0769    1.2316 H   0  0  0  0  0  0  0  0  0  0  0  0
   -5.7437    0.9248    2.6457 H   0  0  0  0  0  0  0  0  0  0  0  0
   -3.6723    2.2422    2.7050 H   0  0  0  0  0  0  0  0  0  0  0  0
   -0.4623    1.2308    1.2925 H   0  0  0  0  0  0  0  0  0  0  0  0
   -1.2934    2.1543    2.5168 H   0  0  0  0  0  0  0  0  0  0  0  0
   -1.3701    2.7098    0.8377 H   0  0  0  0  0  0  0  0  0  0  0  0
    2.2167    1.9045   -3.6207 H   0  0  0  0  0  0  0  0  0  0  0  0
    0.6231    2.2298   -2.8883 H   0  0  0  0  0  0  0  0  0  0  0  0
    0.7768    0.9954   -4.1873 H   0  0  0  0  0  0  0  0  0  0  0  0
    3.5078   -0.0459   -3.0441 H   0  0  0  0  0  0  0  0  0  0  0  0
    2.1769   -0.9554   -3.8387 H   0  0  0  0  0  0  0  0  0  0  0  0
    2.7235   -1.4285   -2.2035 H   0  0  0  0  0  0  0  0  0  0  0  0
  1  2  1  0
  2  3  1  0
  3  4  1  0
  4  5  1  0
  5  6  1  0
  6  7  1  0
  7  8  1  0
  8  9  1  0
  9 10  2  0
  9 11  1  0
 11 12  1  0
 12 13  2  0
 13 14  1  0
 13 15  1  0
 15 16  2  0
 16 17  1  0
 17 18  2  0
 18 19  1  0
  7 20  1  0
  7 21  1  0
 18 12  1  0
  2 22  1  0
  2 23  1  0
  3 24  1  0
  3 25  1  0
  4 26  1  0
  4 27  1  0
  5 28  1  0
  5 29  1  0
  6 30  1  0
  6 31  1  0
  8 32  1  0
  8 33  1  0
 11 34  1  0
 14 35  1  0
 14 36  1  0
 14 37  1  0
 15 38  1  0
 16 39  1  0
 17 40  1  0
 19 41  1  0
 19 42  1  0
 19 43  1  0
 20 44  1  0
 20 45  1  0
 20 46  1  0
 21 47  1  0
 21 48  1  0
 21 49  1  0
M  CHG  1   7   1
M  END
