
     RDKit          3D

 52 52  0  0  0  0  0  0  0  0999 V2000
   -7.5823    0.6434    0.6671 Cl  0  0  0  0  0  0  0  0  0  0  0  0
   -7.1923    0.4830   -1.0622 C   0  0  0  0  0  0  0  0  0  0  0  0
   -5.7269    0.1053   -1.2655 C   0  0  0  0  0  0  0  0  0  0  0  0
   -4.7610    1.2308   -0.8767 C   0  0  0  0  0  0  0  0  0  0  0  0
   -3.2854    0.8682   -1.0761 C   0  0  0  0  0  0  0  0  0  0  0  0
   -2.7941   -0.2095   -0.1011 C   0  0  0  0  0  0  0  0  0  0  0  0
   -1.2828   -0.4217   -0.2438 C   0  0  0  0  0  0  0  0  0  0  0  0
   -0.7064   -1.4231    0.7801 N   0  0  0  0  0  4  0  0  0  0  0  0
    0.8237   -1.6385    0.4690 C   0  0  0  0  0  0  0  0  0  0  0  0
    1.7326   -0.3990    0.5232 C   0  0  0  0  0  0  0  0  0  0  0  0
    1.3590    0.6458    1.0468 O   0  0  0  0  0  0  0  0  0  0  0  0
    2.9810   -0.6254   -0.0386 N   0  0  0  0  0  0  0  0  0  0  0  0
    3.9960    0.3621   -0.1710 C   0  0  0  0  0  0  0  0  0  0  0  0
    3.7388    1.6655   -0.6516 C   0  0  0  0  0  0  0  0  0  0  0  0
    2.4028    2.1442   -1.1548 C   0  0  0  0  0  0  0  0  0  0  0  0
    4.7973    2.5899   -0.7194 C   0  0  0  0  0  0  0  0  0  0  0  0
    6.0964    2.2247   -0.3814 C   0  0  0  0  0  0  0  0  0  0  0  0
    6.3612    0.9245    0.0298 C   0  0  0  0  0  0  0  0  0  0  0  0
    5.3266   -0.0187    0.1383 C   0  0  0  0  0  0  0  0  0  0  0  0
    5.6909   -1.4013    0.6149 C   0  0  0  0  0  0  0  0  0  0  0  0
   -1.3828   -2.7846    0.6730 C   0  0  0  0  0  0  0  0  0  0  0  0
   -0.8645   -0.8957    2.2095 C   0  0  0  0  0  0  0  0  0  0  0  0
   -7.4324    1.4298   -1.5552 H   0  0  0  0  0  0  0  0  0  0  0  0
   -7.8436   -0.2968   -1.4705 H   0  0  0  0  0  0  0  0  0  0  0  0
   -5.5727   -0.1404   -2.3237 H   0  0  0  0  0  0  0  0  0  0  0  0
   -5.5095   -0.8053   -0.6960 H   0  0  0  0  0  0  0  0  0  0  0  0
   -4.9850    2.1132   -1.4896 H   0  0  0  0  0  0  0  0  0  0  0  0
   -4.9150    1.5267    0.1677 H   0  0  0  0  0  0  0  0  0  0  0  0
   -3.1142    0.5460   -2.1097 H   0  0  0  0  0  0  0  0  0  0  0  0
   -2.6921    1.7783   -0.9249 H   0  0  0  0  0  0  0  0  0  0  0  0
   -3.3235   -1.1449   -0.3058 H   0  0  0  0  0  0  0  0  0  0  0  0
   -3.0440    0.0989    0.9190 H   0  0  0  0  0  0  0  0  0  0  0  0
   -0.7601    0.5290   -0.1101 H   0  0  0  0  0  0  0  0  0  0  0  0
   -1.0446   -0.8156   -1.2392 H   0  0  0  0  0  0  0  0  0  0  0  0
    1.1913   -2.3693    1.1988 H   0  0  0  0  0  0  0  0  0  0  0  0
    0.8697   -2.0739   -0.5362 H   0  0  0  0  0  0  0  0  0  0  0  0
    3.3216   -1.5779    0.0025 H   0  0  0  0  0  0  0  0  0  0  0  0
    1.8445    2.6420   -0.3563 H   0  0  0  0  0  0  0  0  0  0  0  0
    2.5364    2.8642   -1.9719 H   0  0  0  0  0  0  0  0  0  0  0  0
    1.8092    1.3251   -1.5746 H   0  0  0  0  0  0  0  0  0  0  0  0
    4.6155    3.6066   -1.0652 H   0  0  0  0  0  0  0  0  0  0  0  0
    6.9038    2.9498   -0.4546 H   0  0  0  0  0  0  0  0  0  0  0  0
    7.3871    0.6548    0.2763 H   0  0  0  0  0  0  0  0  0  0  0  0
    6.7494   -1.4701    0.8917 H   0  0  0  0  0  0  0  0  0  0  0  0
    5.1065   -1.6648    1.5033 H   0  0  0  0  0  0  0  0  0  0  0  0
    5.5083   -2.1342   -0.1780 H   0  0  0  0  0  0  0  0  0  0  0  0
   -2.4249   -2.6956    0.9912 H   0  0  0  0  0  0  0  0  0  0  0  0
   -1.3218   -3.1203   -0.3665 H   0  0  0  0  0  0  0  0  0  0  0  0
   -0.8588   -3.4826    1.3329 H   0  0  0  0  0  0  0  0  0  0  0  0
   -0.6135    0.1661    2.2415 H   0  0  0  0  0  0  0  0  0  0  0  0
   -0.2108   -1.4767    2.8663 H   0  0  0  0  0  0  0  0  0  0  0  0
   -1.9050   -1.0325    2.5174 H   0  0  0  0  0  0  0  0  0  0  0  0
  1  2  1  0
  2  3  1  0
  3  4  1  0
  4  5  1  0
  5  6  1  0
  6  7  1  0
  7  8  1  0
  8  9  1  0
  9 10  1  0
 10 11  2  0
 10 12  1  0
 12 13  1  0
 13 14  2  0
 14 15  1  0
 14 16  1  0
 16 17  2  0
 17 18  1  0
 18 19  2  0
 19 20  1  0
  8 21  1  0
  8 22  1  0
 19 13  1  0
  2 23  1  0
  2 24  1  0
  3 25  1  0
  3 26  1  0
  4 27  1  0
  4 28  1  0
  5 29  1  0
  5 30  1  0
  6 31  1  0
  6 32  1  0
  7 33  1  0
  7 34  1  0
  9 35  1  0
  9 36  1  0
 12 37  1  0
 15 38  1  0
 15 39  1  0
 15 40  1  0
 16 41  1  0
 17 42  1  0
 18 43  1  0
 20 44  1  0
 20 45  1  0
 20 46  1  0
 21 47  1  0
 21 48  1  0
 21 49  1  0
 22 50  1  0
 22 51  1  0
 22 52  1  0
M  CHG  1   8   1
M  END
