
     RDKit          3D

 58 58  0  0  0  0  0  0  0  0999 V2000
    4.5829   -0.3526    2.4766 Cl  0  0  0  0  0  0  0  0  0  0  0  0
    5.9634   -0.4756    1.3550 C   0  0  0  0  0  0  0  0  0  0  0  0
    6.0449    0.7072    0.3931 C   0  0  0  0  0  0  0  0  0  0  0  0
    4.7828    1.0135   -0.4247 C   0  0  0  0  0  0  0  0  0  0  0  0
    4.1996   -0.2047   -1.1431 C   0  0  0  0  0  0  0  0  0  0  0  0
    3.0223    0.1262   -2.0660 C   0  0  0  0  0  0  0  0  0  0  0  0
    1.8383    0.8552   -1.4188 C   0  0  0  0  0  0  0  0  0  0  0  0
    1.2699    0.2289   -0.1384 C   0  0  0  0  0  0  0  0  0  0  0  0
    0.7963   -1.2114   -0.3343 C   0  0  0  0  0  0  0  0  0  0  0  0
    0.1680   -1.8252    0.9372 N   0  0  0  0  0  4  0  0  0  0  0  0
   -1.0612   -1.0102    1.4595 C   0  0  0  0  0  0  0  0  0  0  0  0
   -2.1558   -0.6753    0.4331 C   0  0  0  0  0  0  0  0  0  0  0  0
   -2.2944   -1.3381   -0.5897 O   0  0  0  0  0  0  0  0  0  0  0  0
   -2.9433    0.4009    0.8156 N   0  0  0  0  0  0  0  0  0  0  0  0
   -3.9797    0.9638    0.0244 C   0  0  0  0  0  0  0  0  0  0  0  0
   -5.1866    1.3154    0.6785 C   0  0  0  0  0  0  0  0  0  0  0  0
   -5.4046    1.1089    2.1545 C   0  0  0  0  0  0  0  0  0  0  0  0
   -6.2482    1.8533   -0.0675 C   0  0  0  0  0  0  0  0  0  0  0  0
   -6.1244    2.0562   -1.4365 C   0  0  0  0  0  0  0  0  0  0  0  0
   -4.9251    1.7545   -2.0720 C   0  0  0  0  0  0  0  0  0  0  0  0
   -3.8308    1.2357   -1.3549 C   0  0  0  0  0  0  0  0  0  0  0  0
   -2.5535    1.0567   -2.1306 C   0  0  0  0  0  0  0  0  0  0  0  0
   -0.2815   -3.2516    0.5865 C   0  0  0  0  0  0  0  0  0  0  0  0
    1.1968   -1.9265    2.0605 C   0  0  0  0  0  0  0  0  0  0  0  0
    6.8744   -0.5296    1.9603 H   0  0  0  0  0  0  0  0  0  0  0  0
    5.8674   -1.4210    0.8127 H   0  0  0  0  0  0  0  0  0  0  0  0
    6.8757    0.5223   -0.2997 H   0  0  0  0  0  0  0  0  0  0  0  0
    6.3145    1.6085    0.9571 H   0  0  0  0  0  0  0  0  0  0  0  0
    5.0335    1.7844   -1.1649 H   0  0  0  0  0  0  0  0  0  0  0  0
    4.0315    1.4612    0.2358 H   0  0  0  0  0  0  0  0  0  0  0  0
    4.9856   -0.6756   -1.7455 H   0  0  0  0  0  0  0  0  0  0  0  0
    3.8781   -0.9558   -0.4161 H   0  0  0  0  0  0  0  0  0  0  0  0
    3.3879    0.7411   -2.8990 H   0  0  0  0  0  0  0  0  0  0  0  0
    2.6653   -0.8077   -2.5179 H   0  0  0  0  0  0  0  0  0  0  0  0
    2.1331    1.8887   -1.1950 H   0  0  0  0  0  0  0  0  0  0  0  0
    1.0343    0.9284   -2.1631 H   0  0  0  0  0  0  0  0  0  0  0  0
    2.0243    0.2815    0.6517 H   0  0  0  0  0  0  0  0  0  0  0  0
    0.4368    0.8619    0.1866 H   0  0  0  0  0  0  0  0  0  0  0  0
    1.6338   -1.8650   -0.6024 H   0  0  0  0  0  0  0  0  0  0  0  0
    0.0591   -1.2710   -1.1404 H   0  0  0  0  0  0  0  0  0  0  0  0
   -0.6636   -0.0817    1.8852 H   0  0  0  0  0  0  0  0  0  0  0  0
   -1.5094   -1.5988    2.2693 H   0  0  0  0  0  0  0  0  0  0  0  0
   -3.0422    0.5500    1.8121 H   0  0  0  0  0  0  0  0  0  0  0  0
   -4.7315    1.7532    2.7287 H   0  0  0  0  0  0  0  0  0  0  0  0
   -6.4297    1.3564    2.4511 H   0  0  0  0  0  0  0  0  0  0  0  0
   -5.2339    0.0619    2.4255 H   0  0  0  0  0  0  0  0  0  0  0  0
   -7.1918    2.1084    0.4139 H   0  0  0  0  0  0  0  0  0  0  0  0
   -6.9559    2.4650   -2.0057 H   0  0  0  0  0  0  0  0  0  0  0  0
   -4.8374    1.9499   -3.1409 H   0  0  0  0  0  0  0  0  0  0  0  0
   -2.4561    1.8359   -2.8953 H   0  0  0  0  0  0  0  0  0  0  0  0
   -2.5444    0.0871   -2.6353 H   0  0  0  0  0  0  0  0  0  0  0  0
   -1.6718    1.1560   -1.4922 H   0  0  0  0  0  0  0  0  0  0  0  0
   -0.8173   -3.6671    1.4450 H   0  0  0  0  0  0  0  0  0  0  0  0
   -0.9206   -3.2324   -0.2978 H   0  0  0  0  0  0  0  0  0  0  0  0
    0.6135   -3.8459    0.3768 H   0  0  0  0  0  0  0  0  0  0  0  0
    0.7571   -2.5070    2.8771 H   0  0  0  0  0  0  0  0  0  0  0  0
    2.0876   -2.4273    1.6726 H   0  0  0  0  0  0  0  0  0  0  0  0
    1.4361   -0.9211    2.4138 H   0  0  0  0  0  0  0  0  0  0  0  0
  1  2  1  0
  2  3  1  0
  3  4  1  0
  4  5  1  0
  5  6  1  0
  6  7  1  0
  7  8  1  0
  8  9  1  0
  9 10  1  0
 10 11  1  0
 11 12  1  0
 12 13  2  0
 12 14  1  0
 14 15  1  0
 15 16  2  0
 16 17  1  0
 16 18  1  0
 18 19  2  0
 19 20  1  0
 20 21  2  0
 21 22  1  0
 10 23  1  0
 10 24  1  0
 21 15  1  0
  2 25  1  0
  2 26  1  0
  3 27  1  0
  3 28  1  0
  4 29  1  0
  4 30  1  0
  5 31  1  0
  5 32  1  0
  6 33  1  0
  6 34  1  0
  7 35  1  0
  7 36  1  0
  8 37  1  0
  8 38  1  0
  9 39  1  0
  9 40  1  0
 11 41  1  0
 11 42  1  0
 14 43  1  0
 17 44  1  0
 17 45  1  0
 17 46  1  0
 18 47  1  0
 19 48  1  0
 20 49  1  0
 22 50  1  0
 22 51  1  0
 22 52  1  0
 23 53  1  0
 23 54  1  0
 23 55  1  0
 24 56  1  0
 24 57  1  0
 24 58  1  0
M  CHG  1  10   1
M  END
