
     RDKit          3D

 24 25  0  0  0  0  0  0  0  0999 V2000
    3.1342    1.0374   -0.4553 C   0  0  0  0  0  0  0  0  0  0  0  0
    2.1487    0.0136   -0.2176 N   0  0  0  0  0  0  0  0  0  0  0  0
    2.3942   -1.3250   -0.0608 C   0  0  0  0  0  0  0  0  0  0  0  0
    1.2817   -2.0027    0.1428 N   0  0  0  0  0  0  0  0  0  0  0  0
    0.2998   -1.0590    0.1134 C   0  0  0  0  0  0  0  0  0  0  0  0
    0.7992    0.1888   -0.1058 C   0  0  0  0  0  0  0  0  0  0  0  0
   -0.0146    1.3513   -0.1817 C   0  0  0  0  0  0  0  0  0  0  0  0
    0.4456    2.4718   -0.3798 O   0  0  0  0  0  0  0  0  0  0  0  0
   -1.3735    1.0727   -0.0075 N   0  0  0  0  0  0  0  0  0  0  0  0
   -2.3102    2.1778   -0.0633 C   0  0  0  0  0  0  0  0  0  0  0  0
   -1.9288   -0.2039    0.2213 C   0  0  0  0  0  0  0  0  0  0  0  0
   -3.1467   -0.3494    0.3633 O   0  0  0  0  0  0  0  0  0  0  0  0
   -1.0455   -1.2824    0.2788 N   0  0  0  0  0  0  0  0  0  0  0  0
   -1.5360   -2.6287    0.5105 C   0  0  0  0  0  0  0  0  0  0  0  0
    3.0902    1.7598    0.3635 H   0  0  0  0  0  0  0  0  0  0  0  0
    2.9121    1.5194   -1.4106 H   0  0  0  0  0  0  0  0  0  0  0  0
    4.1283    0.5846   -0.4937 H   0  0  0  0  0  0  0  0  0  0  0  0
    3.3894   -1.7497   -0.1031 H   0  0  0  0  0  0  0  0  0  0  0  0
   -3.0311    1.9928   -0.8664 H   0  0  0  0  0  0  0  0  0  0  0  0
   -1.8189    3.1373   -0.2426 H   0  0  0  0  0  0  0  0  0  0  0  0
   -2.8553    2.2302    0.8850 H   0  0  0  0  0  0  0  0  0  0  0  0
   -2.6230   -2.6532    0.6230 H   0  0  0  0  0  0  0  0  0  0  0  0
   -1.0814   -3.0222    1.4253 H   0  0  0  0  0  0  0  0  0  0  0  0
   -1.2585   -3.2613   -0.3386 H   0  0  0  0  0  0  0  0  0  0  0  0
  1  2  1  0
  2  3  1  0
  3  4  2  0
  4  5  1  0
  5  6  2  0
  6  7  1  0
  7  8  2  0
  7  9  1  0
  9 10  1  0
  9 11  1  0
 11 12  2  0
 11 13  1  0
 13 14  1  0
  6  2  1  0
 13  5  1  0
  1 15  1  0
  1 16  1  0
  1 17  1  0
  3 18  1  0
 10 19  1  0
 10 20  1  0
 10 21  1  0
 14 22  1  0
 14 23  1  0
 14 24  1  0
M  END
