
     RDKit          3D

 64 64  0  0  0  0  0  0  0  0999 V2000
    8.8935    3.8192   -0.9140 Cl  0  0  0  0  0  0  0  0  0  0  0  0
    9.3711    2.2852   -0.1518 C   0  0  0  0  0  0  0  0  0  0  0  0
    8.6567    1.0897   -0.7742 C   0  0  0  0  0  0  0  0  0  0  0  0
    7.1408    1.1045   -0.5542 C   0  0  0  0  0  0  0  0  0  0  0  0
    6.4874   -0.1616   -1.1131 C   0  0  0  0  0  0  0  0  0  0  0  0
    4.9680   -0.1331   -0.9288 C   0  0  0  0  0  0  0  0  0  0  0  0
    4.3234   -1.4122   -1.4671 C   0  0  0  0  0  0  0  0  0  0  0  0
    2.7932   -1.3763   -1.4554 C   0  0  0  0  0  0  0  0  0  0  0  0
    2.1914   -1.3173   -0.0493 C   0  0  0  0  0  0  0  0  0  0  0  0
    0.6619   -1.4088   -0.1036 C   0  0  0  0  0  0  0  0  0  0  0  0
    0.0634   -1.3563    1.3027 C   0  0  0  0  0  0  0  0  0  0  0  0
   -1.4688   -1.5234    1.3304 N   0  0  0  0  0  4  0  0  0  0  0  0
   -2.1656   -0.3569    0.5498 C   0  0  0  0  0  0  0  0  0  0  0  0
   -3.7045   -0.3205    0.5587 C   0  0  0  0  0  0  0  0  0  0  0  0
   -4.3637   -1.2679    0.9727 O   0  0  0  0  0  0  0  0  0  0  0  0
   -4.2146    0.8730    0.0677 N   0  0  0  0  0  0  0  0  0  0  0  0
   -5.5936    1.1594   -0.1189 C   0  0  0  0  0  0  0  0  0  0  0  0
   -6.5071    0.2361   -0.6740 C   0  0  0  0  0  0  0  0  0  0  0  0
   -6.1331   -1.1095   -1.2365 C   0  0  0  0  0  0  0  0  0  0  0  0
   -7.8657    0.5914   -0.7723 C   0  0  0  0  0  0  0  0  0  0  0  0
   -8.3096    1.8535   -0.3968 C   0  0  0  0  0  0  0  0  0  0  0  0
   -7.4001    2.7885    0.0793 C   0  0  0  0  0  0  0  0  0  0  0  0
   -6.0408    2.4622    0.2184 C   0  0  0  0  0  0  0  0  0  0  0  0
   -5.1220    3.5241    0.7650 C   0  0  0  0  0  0  0  0  0  0  0  0
   -1.9071   -1.4841    2.8007 C   0  0  0  0  0  0  0  0  0  0  0  0
   -1.8782   -2.8783    0.7494 C   0  0  0  0  0  0  0  0  0  0  0  0
    9.1547    2.3601    0.9181 H   0  0  0  0  0  0  0  0  0  0  0  0
   10.4532    2.1834   -0.2759 H   0  0  0  0  0  0  0  0  0  0  0  0
    9.0724    0.1760   -0.3316 H   0  0  0  0  0  0  0  0  0  0  0  0
    8.8748    1.0450   -1.8485 H   0  0  0  0  0  0  0  0  0  0  0  0
    6.6968    1.9808   -1.0401 H   0  0  0  0  0  0  0  0  0  0  0  0
    6.9259    1.1838    0.5187 H   0  0  0  0  0  0  0  0  0  0  0  0
    6.9032   -1.0428   -0.6100 H   0  0  0  0  0  0  0  0  0  0  0  0
    6.7247   -0.2557   -2.1800 H   0  0  0  0  0  0  0  0  0  0  0  0
    4.7358   -0.0155    0.1354 H   0  0  0  0  0  0  0  0  0  0  0  0
    4.5531    0.7375   -1.4513 H   0  0  0  0  0  0  0  0  0  0  0  0
    4.6515   -1.5713   -2.5021 H   0  0  0  0  0  0  0  0  0  0  0  0
    4.6756   -2.2753   -0.8888 H   0  0  0  0  0  0  0  0  0  0  0  0
    2.4417   -0.5201   -2.0443 H   0  0  0  0  0  0  0  0  0  0  0  0
    2.4287   -2.2788   -1.9625 H   0  0  0  0  0  0  0  0  0  0  0  0
    2.5869   -2.1422    0.5558 H   0  0  0  0  0  0  0  0  0  0  0  0
    2.4781   -0.3816    0.4441 H   0  0  0  0  0  0  0  0  0  0  0  0
    0.3842   -2.3400   -0.6074 H   0  0  0  0  0  0  0  0  0  0  0  0
    0.2866   -0.5797   -0.7119 H   0  0  0  0  0  0  0  0  0  0  0  0
    0.2865   -0.3953    1.7806 H   0  0  0  0  0  0  0  0  0  0  0  0
    0.4810   -2.1569    1.9249 H   0  0  0  0  0  0  0  0  0  0  0  0
   -1.7752    0.5729    0.9797 H   0  0  0  0  0  0  0  0  0  0  0  0
   -1.8518   -0.4427   -0.4958 H   0  0  0  0  0  0  0  0  0  0  0  0
   -3.6239    1.6892    0.1623 H   0  0  0  0  0  0  0  0  0  0  0  0
   -6.7569   -1.3481   -2.1061 H   0  0  0  0  0  0  0  0  0  0  0  0
   -6.2778   -1.8949   -0.4893 H   0  0  0  0  0  0  0  0  0  0  0  0
   -5.1017   -1.1247   -1.6024 H   0  0  0  0  0  0  0  0  0  0  0  0
   -8.5887   -0.1165   -1.1747 H   0  0  0  0  0  0  0  0  0  0  0  0
   -9.3612    2.1125   -0.4945 H   0  0  0  0  0  0  0  0  0  0  0  0
   -7.7643    3.7780    0.3489 H   0  0  0  0  0  0  0  0  0  0  0  0
   -5.6631    4.4459    1.0048 H   0  0  0  0  0  0  0  0  0  0  0  0
   -4.3545    3.7792    0.0270 H   0  0  0  0  0  0  0  0  0  0  0  0
   -4.6462    3.1767    1.6876 H   0  0  0  0  0  0  0  0  0  0  0  0
   -1.6675   -0.4953    3.2027 H   0  0  0  0  0  0  0  0  0  0  0  0
   -1.3552   -2.2597    3.3407 H   0  0  0  0  0  0  0  0  0  0  0  0
   -2.9779   -1.6789    2.8767 H   0  0  0  0  0  0  0  0  0  0  0  0
   -2.8997   -3.1172    1.0498 H   0  0  0  0  0  0  0  0  0  0  0  0
   -1.8058   -2.8292   -0.3398 H   0  0  0  0  0  0  0  0  0  0  0  0
   -1.2002   -3.6393    1.1474 H   0  0  0  0  0  0  0  0  0  0  0  0
  1  2  1  0
  2  3  1  0
  3  4  1  0
  4  5  1  0
  5  6  1  0
  6  7  1  0
  7  8  1  0
  8  9  1  0
  9 10  1  0
 10 11  1  0
 11 12  1  0
 12 13  1  0
 13 14  1  0
 14 15  2  0
 14 16  1  0
 16 17  1  0
 17 18  2  0
 18 19  1  0
 18 20  1  0
 20 21  2  0
 21 22  1  0
 22 23  2  0
 23 24  1  0
 12 25  1  0
 12 26  1  0
 23 17  1  0
  2 27  1  0
  2 28  1  0
  3 29  1  0
  3 30  1  0
  4 31  1  0
  4 32  1  0
  5 33  1  0
  5 34  1  0
  6 35  1  0
  6 36  1  0
  7 37  1  0
  7 38  1  0
  8 39  1  0
  8 40  1  0
  9 41  1  0
  9 42  1  0
 10 43  1  0
 10 44  1  0
 11 45  1  0
 11 46  1  0
 13 47  1  0
 13 48  1  0
 16 49  1  0
 19 50  1  0
 19 51  1  0
 19 52  1  0
 20 53  1  0
 21 54  1  0
 22 55  1  0
 24 56  1  0
 24 57  1  0
 24 58  1  0
 25 59  1  0
 25 60  1  0
 25 61  1  0
 26 62  1  0
 26 63  1  0
 26 64  1  0
M  CHG  1  12   1
M  END
