
     RDKit          3D

 47 48  0  0  0  0  0  0  0  0999 V2000
   -0.6104   -0.0635    1.3181 O   0  0  0  0  0  0  0  0  0  0  0  0
   -0.5203   -0.4865    0.1701 C   0  0  0  0  0  0  0  0  0  0  0  0
    0.7548   -1.1964   -0.3168 C   0  0  0  0  0  0  0  0  0  0  0  0
    1.7708   -1.6657    0.7752 N   0  0  0  0  0  4  0  0  0  0  0  0
    2.3452   -0.4855    1.5979 C   0  0  0  0  0  0  0  0  0  0  0  0
    2.9629    0.6490    0.8149 C   0  0  0  0  0  0  0  0  0  0  0  0
    4.2943    0.5873    0.3726 C   0  0  0  0  0  0  0  0  0  0  0  0
    4.8493    1.6379   -0.3643 C   0  0  0  0  0  0  0  0  0  0  0  0
    4.0833    2.7637   -0.6553 C   0  0  0  0  0  0  0  0  0  0  0  0
    2.7694    2.8527   -0.2051 C   0  0  0  0  0  0  0  0  0  0  0  0
    2.2142    1.8033    0.5318 C   0  0  0  0  0  0  0  0  0  0  0  0
    4.7656    4.0507   -1.5663 Cl  0  0  0  0  0  0  0  0  0  0  0  0
    2.8907   -2.4288    0.0833 C   0  0  0  0  0  0  0  0  0  0  0  0
    1.0756   -2.6174    1.7505 C   0  0  0  0  0  0  0  0  0  0  0  0
   -1.5091   -0.4299   -0.8025 N   0  0  0  0  0  0  0  0  0  0  0  0
   -2.7981    0.1441   -0.6300 C   0  0  0  0  0  0  0  0  0  0  0  0
   -3.9003   -0.5528   -1.1881 C   0  0  0  0  0  0  0  0  0  0  0  0
   -3.7506   -1.8505   -1.9398 C   0  0  0  0  0  0  0  0  0  0  0  0
   -5.2003   -0.0477   -1.0196 C   0  0  0  0  0  0  0  0  0  0  0  0
   -5.4186    1.1315   -0.3200 C   0  0  0  0  0  0  0  0  0  0  0  0
   -4.3365    1.8404    0.1874 C   0  0  0  0  0  0  0  0  0  0  0  0
   -3.0168    1.3822    0.0124 C   0  0  0  0  0  0  0  0  0  0  0  0
   -1.9274    2.3067    0.4833 C   0  0  0  0  0  0  0  0  0  0  0  0
    0.4634   -2.1046   -0.8583 H   0  0  0  0  0  0  0  0  0  0  0  0
    1.2932   -0.5379   -1.0058 H   0  0  0  0  0  0  0  0  0  0  0  0
    1.5519   -0.1070    2.2504 H   0  0  0  0  0  0  0  0  0  0  0  0
    3.1006   -0.9152    2.2696 H   0  0  0  0  0  0  0  0  0  0  0  0
    4.9264   -0.2672    0.6067 H   0  0  0  0  0  0  0  0  0  0  0  0
    5.8828    1.5802   -0.7000 H   0  0  0  0  0  0  0  0  0  0  0  0
    2.1779    3.7419   -0.4138 H   0  0  0  0  0  0  0  0  0  0  0  0
    1.1950    1.9119    0.9003 H   0  0  0  0  0  0  0  0  0  0  0  0
    2.4677   -3.3353   -0.3610 H   0  0  0  0  0  0  0  0  0  0  0  0
    3.6483   -2.6932    0.8268 H   0  0  0  0  0  0  0  0  0  0  0  0
    3.3171   -1.8021   -0.7037 H   0  0  0  0  0  0  0  0  0  0  0  0
    1.8326   -3.0244    2.4281 H   0  0  0  0  0  0  0  0  0  0  0  0
    0.3217   -2.0745    2.3235 H   0  0  0  0  0  0  0  0  0  0  0  0
    0.6115   -3.4232    1.1741 H   0  0  0  0  0  0  0  0  0  0  0  0
   -1.4553   -1.1183   -1.5428 H   0  0  0  0  0  0  0  0  0  0  0  0
   -3.1765   -1.6915   -2.8582 H   0  0  0  0  0  0  0  0  0  0  0  0
   -4.7213   -2.2683   -2.2278 H   0  0  0  0  0  0  0  0  0  0  0  0
   -3.2491   -2.5970   -1.3153 H   0  0  0  0  0  0  0  0  0  0  0  0
   -6.0596   -0.5778   -1.4270 H   0  0  0  0  0  0  0  0  0  0  0  0
   -6.4294    1.5100   -0.1871 H   0  0  0  0  0  0  0  0  0  0  0  0
   -4.5261    2.7815    0.7023 H   0  0  0  0  0  0  0  0  0  0  0  0
   -1.7099    2.1414    1.5419 H   0  0  0  0  0  0  0  0  0  0  0  0
   -1.0187    2.1926   -0.1140 H   0  0  0  0  0  0  0  0  0  0  0  0
   -2.2317    3.3531    0.3620 H   0  0  0  0  0  0  0  0  0  0  0  0
  1  2  2  0
  2  3  1  0
  3  4  1  0
  4  5  1  0
  5  6  1  0
  6  7  2  0
  7  8  1  0
  8  9  2  0
  9 10  1  0
 10 11  2  0
  9 12  1  0
  4 13  1  0
  4 14  1  0
  2 15  1  0
 15 16  1  0
 16 17  2  0
 17 18  1  0
 17 19  1  0
 19 20  2  0
 20 21  1  0
 21 22  2  0
 22 23  1  0
 11  6  1  0
 22 16  1  0
  3 24  1  0
  3 25  1  0
  5 26  1  0
  5 27  1  0
  7 28  1  0
  8 29  1  0
 10 30  1  0
 11 31  1  0
 13 32  1  0
 13 33  1  0
 13 34  1  0
 14 35  1  0
 14 36  1  0
 14 37  1  0
 15 38  1  0
 18 39  1  0
 18 40  1  0
 18 41  1  0
 19 42  1  0
 20 43  1  0
 21 44  1  0
 23 45  1  0
 23 46  1  0
 23 47  1  0
M  CHG  1   4   1
M  END
