
     RDKit          3D

 50 51  0  0  0  0  0  0  0  0999 V2000
   -0.5978   -0.1757   -1.2442 O   0  0  0  0  0  0  0  0  0  0  0  0
   -0.9928   -0.8424   -0.2937 C   0  0  0  0  0  0  0  0  0  0  0  0
   -0.1384   -1.9767    0.2978 C   0  0  0  0  0  0  0  0  0  0  0  0
    1.2306   -2.2783   -0.3982 N   0  0  0  0  0  4  0  0  0  0  0  0
    2.1349   -1.0262   -0.5492 C   0  0  0  0  0  0  0  0  0  0  0  0
    2.2962   -0.2115    0.7399 C   0  0  0  0  0  0  0  0  0  0  0  0
    3.2322    0.9534    0.5274 C   0  0  0  0  0  0  0  0  0  0  0  0
    4.5580    0.8963    0.9801 C   0  0  0  0  0  0  0  0  0  0  0  0
    5.4239    1.9716    0.7650 C   0  0  0  0  0  0  0  0  0  0  0  0
    4.9704    3.1062    0.0963 C   0  0  0  0  0  0  0  0  0  0  0  0
    3.6563    3.1758   -0.3591 C   0  0  0  0  0  0  0  0  0  0  0  0
    2.7885    2.1026   -0.1449 C   0  0  0  0  0  0  0  0  0  0  0  0
    6.0390    4.4263   -0.1695 Cl  0  0  0  0  0  0  0  0  0  0  0  0
    0.9635   -2.8234   -1.8078 C   0  0  0  0  0  0  0  0  0  0  0  0
    1.9558   -3.3582    0.3963 C   0  0  0  0  0  0  0  0  0  0  0  0
   -2.2112   -0.6990    0.3536 N   0  0  0  0  0  0  0  0  0  0  0  0
   -3.1784    0.3018    0.0662 C   0  0  0  0  0  0  0  0  0  0  0  0
   -2.8468    1.6552   -0.1650 C   0  0  0  0  0  0  0  0  0  0  0  0
   -1.4642    2.2356   -0.0356 C   0  0  0  0  0  0  0  0  0  0  0  0
   -3.8704    2.5649   -0.4921 C   0  0  0  0  0  0  0  0  0  0  0  0
   -5.2023    2.1699   -0.5252 C   0  0  0  0  0  0  0  0  0  0  0  0
   -5.5373    0.8563   -0.2254 C   0  0  0  0  0  0  0  0  0  0  0  0
   -4.5420   -0.0879    0.0762 C   0  0  0  0  0  0  0  0  0  0  0  0
   -4.9864   -1.4984    0.3669 C   0  0  0  0  0  0  0  0  0  0  0  0
    0.0842   -1.7431    1.3445 H   0  0  0  0  0  0  0  0  0  0  0  0
   -0.7125   -2.9100    0.2600 H   0  0  0  0  0  0  0  0  0  0  0  0
    1.7274   -0.4111   -1.3574 H   0  0  0  0  0  0  0  0  0  0  0  0
    3.1099   -1.3921   -0.8969 H   0  0  0  0  0  0  0  0  0  0  0  0
    1.3347    0.1852    1.0838 H   0  0  0  0  0  0  0  0  0  0  0  0
    2.6774   -0.8389    1.5530 H   0  0  0  0  0  0  0  0  0  0  0  0
    4.9342    0.0238    1.5101 H   0  0  0  0  0  0  0  0  0  0  0  0
    6.4497    1.9219    1.1232 H   0  0  0  0  0  0  0  0  0  0  0  0
    3.3029    4.0634   -0.8788 H   0  0  0  0  0  0  0  0  0  0  0  0
    1.7645    2.1794   -0.5072 H   0  0  0  0  0  0  0  0  0  0  0  0
    0.3238   -3.7065   -1.7198 H   0  0  0  0  0  0  0  0  0  0  0  0
    1.9242   -3.0946   -2.2561 H   0  0  0  0  0  0  0  0  0  0  0  0
    0.4731   -2.0561   -2.4098 H   0  0  0  0  0  0  0  0  0  0  0  0
    1.3315   -4.2569    0.4058 H   0  0  0  0  0  0  0  0  0  0  0  0
    2.1108   -3.0020    1.4175 H   0  0  0  0  0  0  0  0  0  0  0  0
    2.9139   -3.5667   -0.0886 H   0  0  0  0  0  0  0  0  0  0  0  0
   -2.5837   -1.5269    0.8017 H   0  0  0  0  0  0  0  0  0  0  0  0
   -0.9699    2.2733   -1.0103 H   0  0  0  0  0  0  0  0  0  0  0  0
   -1.5125    3.2583    0.3571 H   0  0  0  0  0  0  0  0  0  0  0  0
   -0.8522    1.6749    0.6765 H   0  0  0  0  0  0  0  0  0  0  0  0
   -3.6318    3.6076   -0.6987 H   0  0  0  0  0  0  0  0  0  0  0  0
   -5.9794    2.8913   -0.7670 H   0  0  0  0  0  0  0  0  0  0  0  0
   -6.5880    0.5711   -0.2390 H   0  0  0  0  0  0  0  0  0  0  0  0
   -4.5120   -2.1984   -0.3286 H   0  0  0  0  0  0  0  0  0  0  0  0
   -4.7317   -1.7706    1.3962 H   0  0  0  0  0  0  0  0  0  0  0  0
   -6.0699   -1.6148    0.2552 H   0  0  0  0  0  0  0  0  0  0  0  0
  1  2  2  0
  2  3  1  0
  3  4  1  0
  4  5  1  0
  5  6  1  0
  6  7  1  0
  7  8  2  0
  8  9  1  0
  9 10  2  0
 10 11  1  0
 11 12  2  0
 10 13  1  0
  4 14  1  0
  4 15  1  0
  2 16  1  0
 16 17  1  0
 17 18  2  0
 18 19  1  0
 18 20  1  0
 20 21  2  0
 21 22  1  0
 22 23  2  0
 23 24  1  0
 12  7  1  0
 23 17  1  0
  3 25  1  0
  3 26  1  0
  5 27  1  0
  5 28  1  0
  6 29  1  0
  6 30  1  0
  8 31  1  0
  9 32  1  0
 11 33  1  0
 12 34  1  0
 14 35  1  0
 14 36  1  0
 14 37  1  0
 15 38  1  0
 15 39  1  0
 15 40  1  0
 16 41  1  0
 19 42  1  0
 19 43  1  0
 19 44  1  0
 20 45  1  0
 21 46  1  0
 22 47  1  0
 24 48  1  0
 24 49  1  0
 24 50  1  0
M  CHG  1   4   1
M  END
