
     RDKit          3D

 53 54  0  0  0  0  0  0  0  0999 V2000
   -1.9653   -0.8034   -1.3868 O   0  0  0  0  0  0  0  0  0  0  0  0
   -1.8510   -0.3158   -0.2672 C   0  0  0  0  0  0  0  0  0  0  0  0
   -0.4665   -0.1353    0.3800 C   0  0  0  0  0  0  0  0  0  0  0  0
    0.7443    0.0613   -0.5911 N   0  0  0  0  0  4  0  0  0  0  0  0
    2.0244    0.4259    0.1896 C   0  0  0  0  0  0  0  0  0  0  0  0
    2.4687   -0.6539    1.1807 C   0  0  0  0  0  0  0  0  0  0  0  0
    3.7590   -0.2622    1.9168 C   0  0  0  0  0  0  0  0  0  0  0  0
    4.9468   -0.1260    0.9973 C   0  0  0  0  0  0  0  0  0  0  0  0
    5.5087    1.1336    0.7423 C   0  0  0  0  0  0  0  0  0  0  0  0
    6.5945    1.2605   -0.1278 C   0  0  0  0  0  0  0  0  0  0  0  0
    7.1272    0.1299   -0.7426 C   0  0  0  0  0  0  0  0  0  0  0  0
    6.5879   -1.1286   -0.4886 C   0  0  0  0  0  0  0  0  0  0  0  0
    5.5021   -1.2570    0.3807 C   0  0  0  0  0  0  0  0  0  0  0  0
    8.4571    0.2889   -1.8200 Cl  0  0  0  0  0  0  0  0  0  0  0  0
    0.4426    1.2269   -1.5434 C   0  0  0  0  0  0  0  0  0  0  0  0
    0.9680   -1.1936   -1.4396 C   0  0  0  0  0  0  0  0  0  0  0  0
   -2.8891    0.0916    0.5570 N   0  0  0  0  0  0  0  0  0  0  0  0
   -4.2656    0.0942    0.2022 C   0  0  0  0  0  0  0  0  0  0  0  0
   -4.7416    0.5353   -1.0524 C   0  0  0  0  0  0  0  0  0  0  0  0
   -3.8868    1.1429   -2.1314 C   0  0  0  0  0  0  0  0  0  0  0  0
   -6.1203    0.4574   -1.3281 C   0  0  0  0  0  0  0  0  0  0  0  0
   -7.0240    0.0180   -0.3683 C   0  0  0  0  0  0  0  0  0  0  0  0
   -6.5658   -0.3489    0.8898 C   0  0  0  0  0  0  0  0  0  0  0  0
   -5.1948   -0.3134    1.1936 C   0  0  0  0  0  0  0  0  0  0  0  0
   -4.7773   -0.7527    2.5737 C   0  0  0  0  0  0  0  0  0  0  0  0
   -0.4781    0.7462    1.0310 H   0  0  0  0  0  0  0  0  0  0  0  0
   -0.2613   -1.0296    0.9763 H   0  0  0  0  0  0  0  0  0  0  0  0
    2.7980    0.6147   -0.5626 H   0  0  0  0  0  0  0  0  0  0  0  0
    1.8171    1.3655    0.7154 H   0  0  0  0  0  0  0  0  0  0  0  0
    2.6165   -1.6115    0.6707 H   0  0  0  0  0  0  0  0  0  0  0  0
    1.6943   -0.8107    1.9391 H   0  0  0  0  0  0  0  0  0  0  0  0
    3.9909   -1.0233    2.6726 H   0  0  0  0  0  0  0  0  0  0  0  0
    3.5972    0.6718    2.4694 H   0  0  0  0  0  0  0  0  0  0  0  0
    5.1198    2.0279    1.2255 H   0  0  0  0  0  0  0  0  0  0  0  0
    7.0279    2.2403   -0.3151 H   0  0  0  0  0  0  0  0  0  0  0  0
    7.0159   -2.0125   -0.9559 H   0  0  0  0  0  0  0  0  0  0  0  0
    5.1075   -2.2513    0.5829 H   0  0  0  0  0  0  0  0  0  0  0  0
    1.3235    1.3929   -2.1711 H   0  0  0  0  0  0  0  0  0  0  0  0
   -0.4141    0.9770   -2.1722 H   0  0  0  0  0  0  0  0  0  0  0  0
    0.2300    2.1140   -0.9398 H   0  0  0  0  0  0  0  0  0  0  0  0
    1.9472   -1.1092   -1.9207 H   0  0  0  0  0  0  0  0  0  0  0  0
    0.1968   -1.2623   -2.2089 H   0  0  0  0  0  0  0  0  0  0  0  0
    0.9344   -2.0695   -0.7871 H   0  0  0  0  0  0  0  0  0  0  0  0
   -2.7125    0.0400    1.5527 H   0  0  0  0  0  0  0  0  0  0  0  0
   -3.0079    1.6462   -1.7188 H   0  0  0  0  0  0  0  0  0  0  0  0
   -3.5817    0.3821   -2.8550 H   0  0  0  0  0  0  0  0  0  0  0  0
   -4.4438    1.9171   -2.6724 H   0  0  0  0  0  0  0  0  0  0  0  0
   -6.5035    0.7673   -2.2995 H   0  0  0  0  0  0  0  0  0  0  0  0
   -8.0863   -0.0231   -0.5973 H   0  0  0  0  0  0  0  0  0  0  0  0
   -7.2914   -0.6751    1.6332 H   0  0  0  0  0  0  0  0  0  0  0  0
   -4.0694   -1.5855    2.5108 H   0  0  0  0  0  0  0  0  0  0  0  0
   -4.3189    0.0821    3.1136 H   0  0  0  0  0  0  0  0  0  0  0  0
   -5.6313   -1.0974    3.1667 H   0  0  0  0  0  0  0  0  0  0  0  0
  1  2  2  0
  2  3  1  0
  3  4  1  0
  4  5  1  0
  5  6  1  0
  6  7  1  0
  7  8  1  0
  8  9  2  0
  9 10  1  0
 10 11  2  0
 11 12  1  0
 12 13  2  0
 11 14  1  0
  4 15  1  0
  4 16  1  0
  2 17  1  0
 17 18  1  0
 18 19  2  0
 19 20  1  0
 19 21  1  0
 21 22  2  0
 22 23  1  0
 23 24  2  0
 24 25  1  0
 13  8  1  0
 24 18  1  0
  3 26  1  0
  3 27  1  0
  5 28  1  0
  5 29  1  0
  6 30  1  0
  6 31  1  0
  7 32  1  0
  7 33  1  0
  9 34  1  0
 10 35  1  0
 12 36  1  0
 13 37  1  0
 15 38  1  0
 15 39  1  0
 15 40  1  0
 16 41  1  0
 16 42  1  0
 16 43  1  0
 17 44  1  0
 20 45  1  0
 20 46  1  0
 20 47  1  0
 21 48  1  0
 22 49  1  0
 23 50  1  0
 25 51  1  0
 25 52  1  0
 25 53  1  0
M  CHG  1   4   1
M  END
