
     RDKit          3D

 50 51  0  0  0  0  0  0  0  0999 V2000
   -2.1793   -4.1434    0.8471 C   0  0  0  0  0  0  0  0  0  0  0  0
   -1.0384   -3.2561    0.3693 C   0  0  0  0  0  0  0  0  0  0  0  0
   -1.5147   -1.9980   -0.4016 N   0  0  0  0  0  4  0  0  0  0  0  0
   -2.2998   -1.0658    0.5608 C   0  0  0  0  0  0  0  0  0  0  0  0
   -2.5364    0.3534    0.0930 C   0  0  0  0  0  0  0  0  0  0  0  0
   -1.7578    1.4063    0.6052 C   0  0  0  0  0  0  0  0  0  0  0  0
   -1.9516    2.7187    0.1671 C   0  0  0  0  0  0  0  0  0  0  0  0
   -2.9342    2.9951   -0.7781 C   0  0  0  0  0  0  0  0  0  0  0  0
   -3.7350    1.9707   -1.2763 C   0  0  0  0  0  0  0  0  0  0  0  0
   -3.5430    0.6569   -0.8375 C   0  0  0  0  0  0  0  0  0  0  0  0
   -3.1625    4.6059   -1.3294 Cl  0  0  0  0  0  0  0  0  0  0  0  0
   -0.2438   -1.2701   -0.9862 C   0  0  0  0  0  0  0  0  0  0  0  0
    0.7344   -0.6469    0.0224 C   0  0  0  0  0  0  0  0  0  0  0  0
    0.6657   -0.9097    1.2190 O   0  0  0  0  0  0  0  0  0  0  0  0
    1.6229    0.2398   -0.5685 N   0  0  0  0  0  0  0  0  0  0  0  0
    2.6274    0.9701    0.1218 C   0  0  0  0  0  0  0  0  0  0  0  0
    3.4567    0.4000    1.1124 C   0  0  0  0  0  0  0  0  0  0  0  0
    3.4743   -1.0590    1.4829 C   0  0  0  0  0  0  0  0  0  0  0  0
    4.3836    1.2195    1.7841 C   0  0  0  0  0  0  0  0  0  0  0  0
    4.5419    2.5576    1.4437 C   0  0  0  0  0  0  0  0  0  0  0  0
    3.7801    3.1007    0.4178 C   0  0  0  0  0  0  0  0  0  0  0  0
    2.8241    2.3230   -0.2561 C   0  0  0  0  0  0  0  0  0  0  0  0
    2.0258    2.9922   -1.3457 C   0  0  0  0  0  0  0  0  0  0  0  0
   -2.3770   -2.4112   -1.5876 C   0  0  0  0  0  0  0  0  0  0  0  0
   -2.8618   -3.6140    1.5170 H   0  0  0  0  0  0  0  0  0  0  0  0
   -1.7691   -4.9912    1.4067 H   0  0  0  0  0  0  0  0  0  0  0  0
   -2.7543   -4.5592    0.0152 H   0  0  0  0  0  0  0  0  0  0  0  0
   -0.3857   -3.8190   -0.3076 H   0  0  0  0  0  0  0  0  0  0  0  0
   -0.4512   -2.9323    1.2307 H   0  0  0  0  0  0  0  0  0  0  0  0
   -1.7719   -1.0631    1.5209 H   0  0  0  0  0  0  0  0  0  0  0  0
   -3.2703   -1.5421    0.7454 H   0  0  0  0  0  0  0  0  0  0  0  0
   -0.9983    1.2258    1.3675 H   0  0  0  0  0  0  0  0  0  0  0  0
   -1.3414    3.5216    0.5767 H   0  0  0  0  0  0  0  0  0  0  0  0
   -4.5195    2.1938   -1.9969 H   0  0  0  0  0  0  0  0  0  0  0  0
   -4.2072   -0.1147   -1.2215 H   0  0  0  0  0  0  0  0  0  0  0  0
   -0.6127   -0.4899   -1.6613 H   0  0  0  0  0  0  0  0  0  0  0  0
    0.2958   -2.0179   -1.5787 H   0  0  0  0  0  0  0  0  0  0  0  0
    1.3209    0.6626   -1.4378 H   0  0  0  0  0  0  0  0  0  0  0  0
    4.4954   -1.3813    1.7191 H   0  0  0  0  0  0  0  0  0  0  0  0
    2.8522   -1.2396    2.3640 H   0  0  0  0  0  0  0  0  0  0  0  0
    3.1480   -1.6945    0.6546 H   0  0  0  0  0  0  0  0  0  0  0  0
    5.0151    0.8035    2.5682 H   0  0  0  0  0  0  0  0  0  0  0  0
    5.2738    3.1702    1.9651 H   0  0  0  0  0  0  0  0  0  0  0  0
    3.9341    4.1453    0.1519 H   0  0  0  0  0  0  0  0  0  0  0  0
    2.2759    4.0545   -1.4393 H   0  0  0  0  0  0  0  0  0  0  0  0
    2.2338    2.5198   -2.3110 H   0  0  0  0  0  0  0  0  0  0  0  0
    0.9552    2.9301   -1.1278 H   0  0  0  0  0  0  0  0  0  0  0  0
   -2.5161   -1.5509   -2.2470 H   0  0  0  0  0  0  0  0  0  0  0  0
   -3.3463   -2.7608   -1.2230 H   0  0  0  0  0  0  0  0  0  0  0  0
   -1.8580   -3.2066   -2.1309 H   0  0  0  0  0  0  0  0  0  0  0  0
  1  2  1  0
  2  3  1  0
  3  4  1  0
  4  5  1  0
  5  6  2  0
  6  7  1  0
  7  8  2  0
  8  9  1  0
  9 10  2  0
  8 11  1  0
  3 12  1  0
 12 13  1  0
 13 14  2  0
 13 15  1  0
 15 16  1  0
 16 17  2  0
 17 18  1  0
 17 19  1  0
 19 20  2  0
 20 21  1  0
 21 22  2  0
 22 23  1  0
  3 24  1  0
 10  5  1  0
 22 16  1  0
  1 25  1  0
  1 26  1  0
  1 27  1  0
  2 28  1  0
  2 29  1  0
  4 30  1  0
  4 31  1  0
  6 32  1  0
  7 33  1  0
  9 34  1  0
 10 35  1  0
 12 36  1  0
 12 37  1  0
 15 38  1  0
 18 39  1  0
 18 40  1  0
 18 41  1  0
 19 42  1  0
 20 43  1  0
 21 44  1  0
 23 45  1  0
 23 46  1  0
 23 47  1  0
 24 48  1  0
 24 49  1  0
 24 50  1  0
M  CHG  1   3   1
M  END
