
     RDKit          3D

 56 57  0  0  0  0  0  0  0  0999 V2000
   -1.2840   -4.3223   -1.0523 C   0  0  0  0  0  0  0  0  0  0  0  0
   -1.7000   -2.8685   -1.2147 C   0  0  0  0  0  0  0  0  0  0  0  0
   -1.3346   -2.0391    0.0195 C   0  0  0  0  0  0  0  0  0  0  0  0
   -1.7040   -0.5693   -0.1958 C   0  0  0  0  0  0  0  0  0  0  0  0
   -1.4129    0.3308    1.0248 N   0  0  0  0  0  4  0  0  0  0  0  0
   -1.5792    1.8258    0.6049 C   0  0  0  0  0  0  0  0  0  0  0  0
   -2.9738    2.2715    0.2225 C   0  0  0  0  0  0  0  0  0  0  0  0
   -3.4161    2.1707   -1.1071 C   0  0  0  0  0  0  0  0  0  0  0  0
   -4.7073    2.5704   -1.4597 C   0  0  0  0  0  0  0  0  0  0  0  0
   -5.5632    3.0852   -0.4897 C   0  0  0  0  0  0  0  0  0  0  0  0
   -5.1362    3.2100    0.8294 C   0  0  0  0  0  0  0  0  0  0  0  0
   -3.8463    2.8088    1.1848 C   0  0  0  0  0  0  0  0  0  0  0  0
   -7.1512    3.5748   -0.9219 Cl  0  0  0  0  0  0  0  0  0  0  0  0
    0.0506    0.1477    1.5673 C   0  0  0  0  0  0  0  0  0  0  0  0
    1.1974    0.2898    0.5527 C   0  0  0  0  0  0  0  0  0  0  0  0
    0.9993    0.7302   -0.5744 O   0  0  0  0  0  0  0  0  0  0  0  0
    2.4222   -0.0983    1.0728 N   0  0  0  0  0  0  0  0  0  0  0  0
    3.6432   -0.1443    0.3476 C   0  0  0  0  0  0  0  0  0  0  0  0
    3.7448   -0.6593   -0.9640 C   0  0  0  0  0  0  0  0  0  0  0  0
    2.6171   -1.3012   -1.7248 C   0  0  0  0  0  0  0  0  0  0  0  0
    4.9922   -0.6303   -1.6158 C   0  0  0  0  0  0  0  0  0  0  0  0
    6.1329   -0.1691   -0.9694 C   0  0  0  0  0  0  0  0  0  0  0  0
    6.0473    0.2768    0.3430 C   0  0  0  0  0  0  0  0  0  0  0  0
    4.8149    0.2953    1.0160 C   0  0  0  0  0  0  0  0  0  0  0  0
    4.8016    0.8207    2.4294 C   0  0  0  0  0  0  0  0  0  0  0  0
   -2.3756    0.0045    2.1613 C   0  0  0  0  0  0  0  0  0  0  0  0
   -1.5670   -4.8981   -1.9391 H   0  0  0  0  0  0  0  0  0  0  0  0
   -1.7688   -4.7761   -0.1822 H   0  0  0  0  0  0  0  0  0  0  0  0
   -0.1993   -4.4047   -0.9261 H   0  0  0  0  0  0  0  0  0  0  0  0
   -1.2099   -2.4519   -2.1022 H   0  0  0  0  0  0  0  0  0  0  0  0
   -2.7814   -2.8192   -1.3878 H   0  0  0  0  0  0  0  0  0  0  0  0
   -0.2610   -2.1454    0.2031 H   0  0  0  0  0  0  0  0  0  0  0  0
   -1.8589   -2.4479    0.8895 H   0  0  0  0  0  0  0  0  0  0  0  0
   -1.1673   -0.1589   -1.0564 H   0  0  0  0  0  0  0  0  0  0  0  0
   -2.7776   -0.4892   -0.4008 H   0  0  0  0  0  0  0  0  0  0  0  0
   -0.9026    2.0214   -0.2315 H   0  0  0  0  0  0  0  0  0  0  0  0
   -1.2252    2.4287    1.4512 H   0  0  0  0  0  0  0  0  0  0  0  0
   -2.7588    1.7939   -1.8895 H   0  0  0  0  0  0  0  0  0  0  0  0
   -5.0387    2.4892   -2.4932 H   0  0  0  0  0  0  0  0  0  0  0  0
   -5.8021    3.6290    1.5815 H   0  0  0  0  0  0  0  0  0  0  0  0
   -3.5349    2.9360    2.2193 H   0  0  0  0  0  0  0  0  0  0  0  0
    0.0965   -0.8482    2.0207 H   0  0  0  0  0  0  0  0  0  0  0  0
    0.1848    0.8941    2.3583 H   0  0  0  0  0  0  0  0  0  0  0  0
    2.5320   -0.0139    2.0757 H   0  0  0  0  0  0  0  0  0  0  0  0
    1.8982   -1.7807   -1.0544 H   0  0  0  0  0  0  0  0  0  0  0  0
    2.9962   -2.0993   -2.3741 H   0  0  0  0  0  0  0  0  0  0  0  0
    2.1111   -0.5683   -2.3588 H   0  0  0  0  0  0  0  0  0  0  0  0
    5.0874   -1.0016   -2.6359 H   0  0  0  0  0  0  0  0  0  0  0  0
    7.0904   -0.1708   -1.4850 H   0  0  0  0  0  0  0  0  0  0  0  0
    6.9549    0.6206    0.8364 H   0  0  0  0  0  0  0  0  0  0  0  0
    4.0856    1.6446    2.5219 H   0  0  0  0  0  0  0  0  0  0  0  0
    5.7810    1.2098    2.7286 H   0  0  0  0  0  0  0  0  0  0  0  0
    4.5368    0.0200    3.1273 H   0  0  0  0  0  0  0  0  0  0  0  0
   -2.1344   -0.9864    2.5559 H   0  0  0  0  0  0  0  0  0  0  0  0
   -3.4003    0.0095    1.7798 H   0  0  0  0  0  0  0  0  0  0  0  0
   -2.2456    0.7526    2.9488 H   0  0  0  0  0  0  0  0  0  0  0  0
  1  2  1  0
  2  3  1  0
  3  4  1  0
  4  5  1  0
  5  6  1  0
  6  7  1  0
  7  8  2  0
  8  9  1  0
  9 10  2  0
 10 11  1  0
 11 12  2  0
 10 13  1  0
  5 14  1  0
 14 15  1  0
 15 16  2  0
 15 17  1  0
 17 18  1  0
 18 19  2  0
 19 20  1  0
 19 21  1  0
 21 22  2  0
 22 23  1  0
 23 24  2  0
 24 25  1  0
  5 26  1  0
 12  7  1  0
 24 18  1  0
  1 27  1  0
  1 28  1  0
  1 29  1  0
  2 30  1  0
  2 31  1  0
  3 32  1  0
  3 33  1  0
  4 34  1  0
  4 35  1  0
  6 36  1  0
  6 37  1  0
  8 38  1  0
  9 39  1  0
 11 40  1  0
 12 41  1  0
 14 42  1  0
 14 43  1  0
 17 44  1  0
 20 45  1  0
 20 46  1  0
 20 47  1  0
 21 48  1  0
 22 49  1  0
 23 50  1  0
 25 51  1  0
 25 52  1  0
 25 53  1  0
 26 54  1  0
 26 55  1  0
 26 56  1  0
M  CHG  1   5   1
M  END
