
     RDKit          3D

 57 59  0  0  0  0  0  0  0  0999 V2000
   -6.1360    5.3522   -1.1210 Cl  0  0  0  0  0  0  0  0  0  0  0  0
   -4.7433    4.4587   -0.6580 C   0  0  0  0  0  0  0  0  0  0  0  0
   -3.8952    3.9410   -1.6330 C   0  0  0  0  0  0  0  0  0  0  0  0
   -2.7641    3.2112   -1.2569 C   0  0  0  0  0  0  0  0  0  0  0  0
   -2.4766    2.9847    0.0997 C   0  0  0  0  0  0  0  0  0  0  0  0
   -3.3343    3.5298    1.0703 C   0  0  0  0  0  0  0  0  0  0  0  0
   -4.4649    4.2594    0.6916 C   0  0  0  0  0  0  0  0  0  0  0  0
   -1.2580    2.1838    0.5056 C   0  0  0  0  0  0  0  0  0  0  0  0
   -1.4527    0.6477    0.6391 N   0  0  0  0  0  4  0  0  0  0  0  0
   -1.7475    0.0475   -0.7576 C   0  0  0  0  0  0  0  0  0  0  0  0
   -1.6536   -1.4557   -0.8826 C   0  0  0  0  0  0  0  0  0  0  0  0
   -2.7019   -2.2868   -0.4584 C   0  0  0  0  0  0  0  0  0  0  0  0
   -2.5949   -3.6752   -0.5617 C   0  0  0  0  0  0  0  0  0  0  0  0
   -1.4478   -4.2498   -1.1030 C   0  0  0  0  0  0  0  0  0  0  0  0
   -0.4112   -3.4382   -1.5547 C   0  0  0  0  0  0  0  0  0  0  0  0
   -0.5142   -2.0504   -1.4508 C   0  0  0  0  0  0  0  0  0  0  0  0
   -0.1507    0.0308    1.2610 C   0  0  0  0  0  0  0  0  0  0  0  0
    1.1322    0.1115    0.4194 C   0  0  0  0  0  0  0  0  0  0  0  0
    1.1989    0.8441   -0.5626 O   0  0  0  0  0  0  0  0  0  0  0  0
    2.1302   -0.7361    0.8754 N   0  0  0  0  0  0  0  0  0  0  0  0
    3.4241   -0.8589    0.3011 C   0  0  0  0  0  0  0  0  0  0  0  0
    3.9711   -2.1638    0.2015 C   0  0  0  0  0  0  0  0  0  0  0  0
    3.2438   -3.3939    0.6810 C   0  0  0  0  0  0  0  0  0  0  0  0
    5.2317   -2.3459   -0.3906 C   0  0  0  0  0  0  0  0  0  0  0  0
    5.9542   -1.2614   -0.8702 C   0  0  0  0  0  0  0  0  0  0  0  0
    5.4415    0.0227   -0.7304 C   0  0  0  0  0  0  0  0  0  0  0  0
    4.1948    0.2484   -0.1166 C   0  0  0  0  0  0  0  0  0  0  0  0
    3.8135    1.6895    0.0931 C   0  0  0  0  0  0  0  0  0  0  0  0
   -2.5955    0.3549    1.5991 C   0  0  0  0  0  0  0  0  0  0  0  0
   -4.1054    4.1122   -2.6870 H   0  0  0  0  0  0  0  0  0  0  0  0
   -2.1057    2.8395   -2.0410 H   0  0  0  0  0  0  0  0  0  0  0  0
   -3.1315    3.4088    2.1329 H   0  0  0  0  0  0  0  0  0  0  0  0
   -5.1210    4.6794    1.4514 H   0  0  0  0  0  0  0  0  0  0  0  0
   -0.4610    2.3709   -0.2183 H   0  0  0  0  0  0  0  0  0  0  0  0
   -0.8956    2.5397    1.4786 H   0  0  0  0  0  0  0  0  0  0  0  0
   -2.7606    0.3624   -1.0363 H   0  0  0  0  0  0  0  0  0  0  0  0
   -1.0672    0.5224   -1.4732 H   0  0  0  0  0  0  0  0  0  0  0  0
   -3.6265   -1.8707   -0.0637 H   0  0  0  0  0  0  0  0  0  0  0  0
   -3.4151   -4.3135   -0.2381 H   0  0  0  0  0  0  0  0  0  0  0  0
   -1.3729   -5.3315   -1.1971 H   0  0  0  0  0  0  0  0  0  0  0  0
    0.4708   -3.8878   -2.0074 H   0  0  0  0  0  0  0  0  0  0  0  0
    0.3018   -1.4433   -1.8442 H   0  0  0  0  0  0  0  0  0  0  0  0
   -0.3734   -1.0182    1.4857 H   0  0  0  0  0  0  0  0  0  0  0  0
    0.0223    0.5587    2.2063 H   0  0  0  0  0  0  0  0  0  0  0  0
    1.8202   -1.5523    1.3892 H   0  0  0  0  0  0  0  0  0  0  0  0
    2.2728   -3.4809    0.1841 H   0  0  0  0  0  0  0  0  0  0  0  0
    3.8037   -4.3093    0.4611 H   0  0  0  0  0  0  0  0  0  0  0  0
    3.1007   -3.3502    1.7655 H   0  0  0  0  0  0  0  0  0  0  0  0
    5.6602   -3.3418   -0.4903 H   0  0  0  0  0  0  0  0  0  0  0  0
    6.9257   -1.4135   -1.3347 H   0  0  0  0  0  0  0  0  0  0  0  0
    6.0392    0.8628   -1.0821 H   0  0  0  0  0  0  0  0  0  0  0  0
    3.3353    2.0955   -0.8028 H   0  0  0  0  0  0  0  0  0  0  0  0
    3.1588    1.8162    0.9602 H   0  0  0  0  0  0  0  0  0  0  0  0
    4.7037    2.2941    0.3037 H   0  0  0  0  0  0  0  0  0  0  0  0
   -3.5436    0.6307    1.1301 H   0  0  0  0  0  0  0  0  0  0  0  0
   -2.5965   -0.7111    1.8405 H   0  0  0  0  0  0  0  0  0  0  0  0
   -2.4325    0.9287    2.5165 H   0  0  0  0  0  0  0  0  0  0  0  0
  1  2  1  0
  2  3  2  0
  3  4  1  0
  4  5  2  0
  5  6  1  0
  6  7  2  0
  5  8  1  0
  8  9  1  0
  9 10  1  0
 10 11  1  0
 11 12  2  0
 12 13  1  0
 13 14  2  0
 14 15  1  0
 15 16  2  0
  9 17  1  0
 17 18  1  0
 18 19  2  0
 18 20  1  0
 20 21  1  0
 21 22  2  0
 22 23  1  0
 22 24  1  0
 24 25  2  0
 25 26  1  0
 26 27  2  0
 27 28  1  0
  9 29  1  0
  7  2  1  0
 16 11  1  0
 27 21  1  0
  3 30  1  0
  4 31  1  0
  6 32  1  0
  7 33  1  0
  8 34  1  0
  8 35  1  0
 10 36  1  0
 10 37  1  0
 12 38  1  0
 13 39  1  0
 14 40  1  0
 15 41  1  0
 16 42  1  0
 17 43  1  0
 17 44  1  0
 20 45  1  0
 23 46  1  0
 23 47  1  0
 23 48  1  0
 24 49  1  0
 25 50  1  0
 26 51  1  0
 28 52  1  0
 28 53  1  0
 28 54  1  0
 29 55  1  0
 29 56  1  0
 29 57  1  0
M  CHG  1   9   1
M  END
