
     RDKit          3D

 27 27  0  0  0  0  0  0  0  0999 V2000
    2.7063   -0.7730    0.9387 C   0  0  0  0  0  0  0  0  0  0  0  0
    1.6989    0.2287    0.8620 O   0  0  0  0  0  0  0  0  0  0  0  0
    0.6979    0.0128   -0.1594 C   0  0  0  0  0  0  0  0  0  0  0  0
    1.3434    0.2464   -1.5496 C   0  0  0  0  0  0  0  0  0  0  0  0
    2.0319    1.5037   -1.5932 O   0  0  0  0  0  0  0  0  0  0  0  0
    0.1973   -1.3332   -0.1341 O   0  0  0  0  0  0  0  0  0  0  0  0
   -0.7617   -1.5666    0.9017 C   0  0  0  0  0  0  0  0  0  0  0  0
   -2.0520   -0.7799    0.6542 C   0  0  0  0  0  0  0  0  0  0  0  0
   -1.7943    0.4464   -0.2222 C   0  0  0  0  0  0  0  0  0  0  0  0
   -0.4392    1.0642    0.1143 C   0  0  0  0  0  0  0  0  0  0  0  0
   -0.3413    2.3089   -0.6033 O   0  0  0  0  0  0  0  0  0  0  0  0
   -2.8492    1.3992   -0.0152 O   0  0  0  0  0  0  0  0  0  0  0  0
   -3.0279   -1.6068    0.0060 O   0  0  0  0  0  0  0  0  0  0  0  0
    3.3805   -0.5061    1.7576 H   0  0  0  0  0  0  0  0  0  0  0  0
    3.2967   -0.8180    0.0207 H   0  0  0  0  0  0  0  0  0  0  0  0
    2.2757   -1.7525    1.1640 H   0  0  0  0  0  0  0  0  0  0  0  0
    2.0601   -0.5420   -1.8015 H   0  0  0  0  0  0  0  0  0  0  0  0
    0.5822    0.2367   -2.3373 H   0  0  0  0  0  0  0  0  0  0  0  0
    2.7105    1.4618   -0.8908 H   0  0  0  0  0  0  0  0  0  0  0  0
   -0.9604   -2.6427    0.9324 H   0  0  0  0  0  0  0  0  0  0  0  0
   -0.3150   -1.2828    1.8619 H   0  0  0  0  0  0  0  0  0  0  0  0
   -2.4949   -0.5014    1.6175 H   0  0  0  0  0  0  0  0  0  0  0  0
   -1.8398    0.1863   -1.2871 H   0  0  0  0  0  0  0  0  0  0  0  0
   -0.4297    1.3503    1.1740 H   0  0  0  0  0  0  0  0  0  0  0  0
    0.5963    2.4338   -0.8645 H   0  0  0  0  0  0  0  0  0  0  0  0
   -2.4887    2.2438   -0.3598 H   0  0  0  0  0  0  0  0  0  0  0  0
   -3.7836   -1.0181   -0.1870 H   0  0  0  0  0  0  0  0  0  0  0  0
  1  2  1  0
  2  3  1  0
  3  4  1  0
  4  5  1  0
  3  6  1  0
  6  7  1  0
  7  8  1  0
  8  9  1  0
  9 10  1  0
 10 11  1  0
  9 12  1  0
  8 13  1  0
 10  3  1  0
  1 14  1  0
  1 15  1  0
  1 16  1  0
  4 17  1  0
  4 18  1  0
  5 19  1  0
  7 20  1  0
  7 21  1  0
  8 22  1  0
  9 23  1  0
 10 24  1  0
 11 25  1  0
 12 26  1  0
 13 27  1  0
M  END
