
     RDKit          3D

 23 23  0  0  0  0  0  0  0  0999 V2000
    2.8529   -0.3278    0.8071 O   0  0  0  0  0  0  0  0  0  0  0  0
    1.7601   -1.0530    0.2423 C   0  0  0  0  0  0  0  0  0  0  0  0
    0.8781   -0.1342   -0.6311 C   0  0  0  0  0  0  0  0  0  0  0  0
    1.7537    0.4327   -1.6212 O   0  0  0  0  0  0  0  0  0  0  0  0
   -0.1397   -0.8570   -1.3323 O   0  0  0  0  0  0  0  0  0  0  0  0
   -1.1467   -1.4265   -0.4940 C   0  0  0  0  0  0  0  0  0  0  0  0
   -1.8722   -0.3597    0.3105 C   0  0  0  0  0  0  0  0  0  0  0  0
   -0.8836    0.5168    1.0741 C   0  0  0  0  0  0  0  0  0  0  0  0
    0.2300    1.0279    0.1534 C   0  0  0  0  0  0  0  0  0  0  0  0
   -0.3601    1.9554   -0.8005 O   0  0  0  0  0  0  0  0  0  0  0  0
   -1.5946    1.6193    1.6405 O   0  0  0  0  0  0  0  0  0  0  0  0
    3.3134    0.0748    0.0432 H   0  0  0  0  0  0  0  0  0  0  0  0
    2.1764   -1.8661   -0.3634 H   0  0  0  0  0  0  0  0  0  0  0  0
    1.2034   -1.5143    1.0618 H   0  0  0  0  0  0  0  0  0  0  0  0
    1.3596    1.2933   -1.8586 H   0  0  0  0  0  0  0  0  0  0  0  0
   -0.7077   -2.1900    0.1563 H   0  0  0  0  0  0  0  0  0  0  0  0
   -1.8610   -1.9408   -1.1453 H   0  0  0  0  0  0  0  0  0  0  0  0
   -2.5879   -0.8180    1.0028 H   0  0  0  0  0  0  0  0  0  0  0  0
   -2.4694    0.2673   -0.3640 H   0  0  0  0  0  0  0  0  0  0  0  0
   -0.4540   -0.0544    1.9038 H   0  0  0  0  0  0  0  0  0  0  0  0
    0.9676    1.6146    0.7104 H   0  0  0  0  0  0  0  0  0  0  0  0
   -0.8325    1.4106   -1.4627 H   0  0  0  0  0  0  0  0  0  0  0  0
   -1.5857    2.3291    0.9669 H   0  0  0  0  0  0  0  0  0  0  0  0
  1  2  1  0
  2  3  1  0
  3  4  1  0
  3  5  1  0
  5  6  1  0
  6  7  1  0
  7  8  1  0
  8  9  1  0
  9 10  1  0
  8 11  1  0
  9  3  1  0
  1 12  1  0
  2 13  1  0
  2 14  1  0
  4 15  1  0
  6 16  1  0
  6 17  1  0
  7 18  1  0
  7 19  1  0
  8 20  1  0
  9 21  1  0
 10 22  1  0
 11 23  1  0
M  END
