
     RDKit          3D

 15 15  0  0  0  0  0  0  0  0999 V2000
   -0.7979    2.8367   -0.2919 O   0  0  0  0  0  0  0  0  0  0  0  0
   -0.6820    1.6365   -0.1019 C   0  0  0  0  0  0  0  0  0  0  0  0
    0.6320    0.9717   -0.1816 C   0  0  0  0  0  0  0  0  0  0  0  0
    0.8166   -0.3362    0.0497 C   0  0  0  0  0  0  0  0  0  0  0  0
    2.1638   -0.9855    0.0066 C   0  0  0  0  0  0  0  0  0  0  0  0
   -0.2105   -1.2068    0.3601 O   0  0  0  0  0  0  0  0  0  0  0  0
   -1.7684   -0.7944    0.1294 S   0  0  0  0  0  6  0  0  0  0  0  0
   -2.1348   -1.1291   -1.2292 O   0  0  0  0  0  0  0  0  0  0  0  0
   -2.5432   -1.2801    1.2492 O   0  0  0  0  0  0  0  0  0  0  0  0
   -1.7761    0.8524    0.2296 N   0  0  0  0  0  0  0  0  0  0  0  0
    1.4585    1.6315   -0.4232 H   0  0  0  0  0  0  0  0  0  0  0  0
    2.3977   -1.4352    0.9769 H   0  0  0  0  0  0  0  0  0  0  0  0
    2.1784   -1.7741   -0.7525 H   0  0  0  0  0  0  0  0  0  0  0  0
    2.9583   -0.2717   -0.2340 H   0  0  0  0  0  0  0  0  0  0  0  0
   -2.6924    1.2845    0.2127 H   0  0  0  0  0  0  0  0  0  0  0  0
  1  2  2  0
  2  3  1  0
  3  4  2  0
  4  5  1  0
  4  6  1  0
  6  7  1  0
  7  8  2  0
  7  9  2  0
  7 10  1  0
 10  2  1  0
  3 11  1  0
  5 12  1  0
  5 13  1  0
  5 14  1  0
 10 15  1  0
M  END
