
     RDKit          3D

 76 80  0  0  0  0  0  0  0  0999 V2000
   -4.3576    3.8399    2.0223 O   0  0  0  0  0  0  0  0  0  0  0  0
   -3.4066    4.8745    1.7547 C   0  0  0  0  0  0  0  0  0  0  0  0
   -2.7244    4.6777    0.3904 C   0  0  0  0  0  0  0  0  0  0  0  0
   -1.8496    3.5507    0.5150 O   0  0  0  0  0  0  0  0  0  0  0  0
   -1.9279    2.5576   -0.5077 C   0  0  0  0  0  0  0  0  0  0  0  0
   -1.0970    1.4549   -0.1147 O   0  0  0  0  0  0  0  0  0  0  0  0
    0.2599    1.6087   -0.1867 C   0  0  0  0  0  0  0  0  0  0  0  0
    0.9903    0.4872    0.2225 C   0  0  0  0  0  0  0  0  0  0  0  0
    2.3843    0.4984    0.1986 C   0  0  0  0  0  0  0  0  0  0  0  0
    3.0153   -0.6393    0.6298 O   0  0  0  0  0  0  0  0  0  0  0  0
    4.3496   -0.7751    0.1126 C   0  0  0  0  0  0  0  0  0  0  0  0
    5.1932    0.4502    0.4393 C   0  0  0  0  0  0  0  0  0  0  0  0
    4.5307    1.6529   -0.1647 C   0  0  0  0  0  0  0  0  0  0  0  0
    5.1551    2.6396   -0.5490 O   0  0  0  0  0  0  0  0  0  0  0  0
    3.0584    1.6445   -0.2176 C   0  0  0  0  0  0  0  0  0  0  0  0
    2.3341    2.7662   -0.6305 C   0  0  0  0  0  0  0  0  0  0  0  0
    0.9396    2.7508   -0.6150 C   0  0  0  0  0  0  0  0  0  0  0  0
    2.9324    3.9238   -1.0528 O   0  0  0  0  0  0  0  0  0  0  0  0
    4.9855   -2.0184    0.7087 C   0  0  0  0  0  0  0  0  0  0  0  0
    5.8041   -2.8360   -0.0822 C   0  0  0  0  0  0  0  0  0  0  0  0
    6.4293   -3.9569    0.4702 C   0  0  0  0  0  0  0  0  0  0  0  0
    6.2555   -4.2816    1.8173 C   0  0  0  0  0  0  0  0  0  0  0  0
    5.4432   -3.4743    2.6111 C   0  0  0  0  0  0  0  0  0  0  0  0
    4.8153   -2.3501    2.0614 C   0  0  0  0  0  0  0  0  0  0  0  0
    6.9287   -5.3991    2.2287 O   0  0  0  0  0  0  0  0  0  0  0  0
    6.7936   -5.7639    3.5961 C   0  0  0  0  0  0  0  0  0  0  0  0
   -3.3789    2.0425   -0.6278 C   0  0  0  0  0  0  0  0  0  0  0  0
   -4.3413    3.2055   -0.9543 C   0  0  0  0  0  0  0  0  0  0  0  0
   -3.7292    4.5998   -0.7697 C   0  0  0  0  0  0  0  0  0  0  0  0
   -3.0260    4.9532   -1.9757 O   0  0  0  0  0  0  0  0  0  0  0  0
   -5.5513    3.0730   -0.1907 O   0  0  0  0  0  0  0  0  0  0  0  0
   -3.5504    1.0836   -1.6955 O   0  0  0  0  0  0  0  0  0  0  0  0
   -3.5305   -0.2853   -1.2777 C   0  0  0  0  0  0  0  0  0  0  0  0
   -2.1944   -0.7727   -1.3307 O   0  0  0  0  0  0  0  0  0  0  0  0
   -2.0464   -2.1697   -1.0479 C   0  0  0  0  0  0  0  0  0  0  0  0
   -2.2923   -2.4625    0.4332 C   0  0  0  0  0  0  0  0  0  0  0  0
   -2.8883   -3.0226   -2.0097 C   0  0  0  0  0  0  0  0  0  0  0  0
   -4.3464   -2.5495   -2.0367 C   0  0  0  0  0  0  0  0  0  0  0  0
   -4.4242   -1.0462   -2.2817 C   0  0  0  0  0  0  0  0  0  0  0  0
   -4.0020   -0.7979   -3.6434 O   0  0  0  0  0  0  0  0  0  0  0  0
   -5.0346   -3.2579   -3.0830 O   0  0  0  0  0  0  0  0  0  0  0  0
   -2.8454   -4.4100   -1.6636 O   0  0  0  0  0  0  0  0  0  0  0  0
   -4.5297    3.8754    2.9835 H   0  0  0  0  0  0  0  0  0  0  0  0
   -2.6579    4.8514    2.5540 H   0  0  0  0  0  0  0  0  0  0  0  0
   -3.9343    5.8331    1.7888 H   0  0  0  0  0  0  0  0  0  0  0  0
   -2.0660    5.5407    0.2288 H   0  0  0  0  0  0  0  0  0  0  0  0
   -1.5912    2.9398   -1.4790 H   0  0  0  0  0  0  0  0  0  0  0  0
    0.4621   -0.4028    0.5565 H   0  0  0  0  0  0  0  0  0  0  0  0
    4.2662   -0.9131   -0.9757 H   0  0  0  0  0  0  0  0  0  0  0  0
    5.2735    0.6211    1.5191 H   0  0  0  0  0  0  0  0  0  0  0  0
    6.2002    0.3494    0.0193 H   0  0  0  0  0  0  0  0  0  0  0  0
    0.4174    3.6495   -0.9280 H   0  0  0  0  0  0  0  0  0  0  0  0
    3.9073    3.8013   -1.0008 H   0  0  0  0  0  0  0  0  0  0  0  0
    5.9670   -2.6101   -1.1341 H   0  0  0  0  0  0  0  0  0  0  0  0
    7.0618   -4.5825   -0.1554 H   0  0  0  0  0  0  0  0  0  0  0  0
    5.2760   -3.6865    3.6620 H   0  0  0  0  0  0  0  0  0  0  0  0
    4.1863   -1.7336    2.7013 H   0  0  0  0  0  0  0  0  0  0  0  0
    7.3847   -6.6704    3.7597 H   0  0  0  0  0  0  0  0  0  0  0  0
    7.1920   -4.9832    4.2537 H   0  0  0  0  0  0  0  0  0  0  0  0
    5.7523   -5.9956    3.8440 H   0  0  0  0  0  0  0  0  0  0  0  0
   -3.6796    1.5903    0.3262 H   0  0  0  0  0  0  0  0  0  0  0  0
   -4.6673    3.1130   -1.9987 H   0  0  0  0  0  0  0  0  0  0  0  0
   -4.5100    5.3577   -0.6333 H   0  0  0  0  0  0  0  0  0  0  0  0
   -3.6914    5.0672   -2.6791 H   0  0  0  0  0  0  0  0  0  0  0  0
   -5.3052    3.2167    0.7517 H   0  0  0  0  0  0  0  0  0  0  0  0
   -3.9431   -0.3909   -0.2681 H   0  0  0  0  0  0  0  0  0  0  0  0
   -0.9913   -2.4065   -1.2333 H   0  0  0  0  0  0  0  0  0  0  0  0
   -3.3409   -2.3241    0.7135 H   0  0  0  0  0  0  0  0  0  0  0  0
   -2.0077   -3.4895    0.6858 H   0  0  0  0  0  0  0  0  0  0  0  0
   -1.7050   -1.7789    1.0563 H   0  0  0  0  0  0  0  0  0  0  0  0
   -2.4678   -2.9378   -3.0200 H   0  0  0  0  0  0  0  0  0  0  0  0
   -4.8476   -2.8151   -1.0997 H   0  0  0  0  0  0  0  0  0  0  0  0
   -5.4587   -0.6903   -2.2270 H   0  0  0  0  0  0  0  0  0  0  0  0
   -3.6152    0.1033   -3.6218 H   0  0  0  0  0  0  0  0  0  0  0  0
   -4.8722   -2.7282   -3.8925 H   0  0  0  0  0  0  0  0  0  0  0  0
   -3.5181   -4.8367   -2.2330 H   0  0  0  0  0  0  0  0  0  0  0  0
  1  2  1  0
  2  3  1  0
  3  4  1  0
  4  5  1  0
  5  6  1  0
  6  7  1  0
  7  8  2  0
  8  9  1  0
  9 10  1  0
 10 11  1  0
 11 12  1  0
 12 13  1  0
 13 14  2  0
 13 15  1  0
 15 16  1  0
 16 17  2  0
 16 18  1  0
 11 19  1  0
 19 20  2  0
 20 21  1  0
 21 22  2  0
 22 23  1  0
 23 24  2  0
 22 25  1  0
 25 26  1  0
  5 27  1  0
 27 28  1  0
 28 29  1  0
 29 30  1  0
 28 31  1  0
 27 32  1  0
 32 33  1  0
 33 34  1  0
 34 35  1  0
 35 36  1  0
 35 37  1  0
 37 38  1  0
 38 39  1  0
 39 40  1  0
 38 41  1  0
 37 42  1  0
 29  3  1  0
 39 33  1  0
 17  7  1  0
 24 19  1  0
 15  9  2  0
  1 43  1  0
  2 44  1  0
  2 45  1  0
  3 46  1  0
  5 47  1  0
  8 48  1  0
 11 49  1  0
 12 50  1  0
 12 51  1  0
 17 52  1  0
 18 53  1  0
 20 54  1  0
 21 55  1  0
 23 56  1  0
 24 57  1  0
 26 58  1  0
 26 59  1  0
 26 60  1  0
 27 61  1  0
 28 62  1  0
 29 63  1  0
 30 64  1  0
 31 65  1  0
 33 66  1  0
 35 67  1  0
 36 68  1  0
 36 69  1  0
 36 70  1  0
 37 71  1  0
 38 72  1  0
 39 73  1  0
 40 74  1  0
 41 75  1  0
 42 76  1  0
M  END
