
     RDKit          3D

 18 18  0  0  0  0  0  0  0  0999 V2000
    2.5672    0.4653   -0.4753 C   0  0  0  0  0  0  0  0  0  0  0  0
    1.7618   -0.4681    0.4172 C   0  0  0  0  0  0  0  0  0  0  0  0
    0.2812   -0.3058    0.2075 C   0  0  0  0  0  0  0  0  0  0  0  0
   -0.4806   -1.2592   -0.3495 C   0  0  0  0  0  0  0  0  0  0  0  0
   -1.9412   -1.1427   -0.5179 C   0  0  0  0  0  0  0  0  0  0  0  0
   -2.5979   -2.0504   -1.0023 O   0  0  0  0  0  0  0  0  0  0  0  0
   -2.5449    0.0246   -0.0761 N   0  0  0  0  0  0  0  0  0  0  0  0
   -1.7060    1.4103    0.2358 S   0  0  0  0  0  6  0  0  0  0  0  0
   -2.3350    2.0250    1.3833 O   0  0  0  0  0  0  0  0  0  0  0  0
   -1.5935    2.1197   -1.0197 O   0  0  0  0  0  0  0  0  0  0  0  0
   -0.2248    0.8945    0.6715 O   0  0  0  0  0  0  0  0  0  0  0  0
    3.6386    0.3172   -0.3063 H   0  0  0  0  0  0  0  0  0  0  0  0
    2.3619    0.2744   -1.5341 H   0  0  0  0  0  0  0  0  0  0  0  0
    2.3360    1.5153   -0.2669 H   0  0  0  0  0  0  0  0  0  0  0  0
    2.0704   -1.5018    0.2199 H   0  0  0  0  0  0  0  0  0  0  0  0
    2.0007   -0.2673    1.4683 H   0  0  0  0  0  0  0  0  0  0  0  0
   -0.0592   -2.1965   -0.6969 H   0  0  0  0  0  0  0  0  0  0  0  0
   -3.5346    0.1456   -0.2558 H   0  0  0  0  0  0  0  0  0  0  0  0
  1  2  1  0
  2  3  1  0
  3  4  2  0
  4  5  1  0
  5  6  2  0
  5  7  1  0
  7  8  1  0
  8  9  2  0
  8 10  2  0
  8 11  1  0
 11  3  1  0
  1 12  1  0
  1 13  1  0
  1 14  1  0
  2 15  1  0
  2 16  1  0
  4 17  1  0
  7 18  1  0
M  END
