
     RDKit          3D

 18 18  0  0  0  0  0  0  0  0999 V2000
   -1.2585    1.7459    0.0572 C   0  0  0  0  0  0  0  0  0  0  0  0
   -0.2530    0.6367   -0.0904 C   0  0  0  0  0  0  0  0  0  0  0  0
   -0.5299   -0.6792    0.0303 C   0  0  0  0  0  0  0  0  0  0  0  0
   -1.9004   -1.2517    0.2496 C   0  0  0  0  0  0  0  0  0  0  0  0
    0.4294   -1.6727   -0.0717 O   0  0  0  0  0  0  0  0  0  0  0  0
    2.0119   -1.3414    0.0789 S   0  0  0  0  0  6  0  0  0  0  0  0
    2.7512   -2.1989   -0.8199 O   0  0  0  0  0  0  0  0  0  0  0  0
    2.3385   -1.2781    1.4863 O   0  0  0  0  0  0  0  0  0  0  0  0
    2.1410    0.1873   -0.5118 N   0  0  0  0  0  0  0  0  0  0  0  0
    1.1271    1.1263   -0.3974 C   0  0  0  0  0  0  0  0  0  0  0  0
    1.3731    2.3095   -0.5757 O   0  0  0  0  0  0  0  0  0  0  0  0
   -1.4631    2.2045   -0.9158 H   0  0  0  0  0  0  0  0  0  0  0  0
   -2.2089    1.4114    0.4807 H   0  0  0  0  0  0  0  0  0  0  0  0
   -0.8805    2.5207    0.7336 H   0  0  0  0  0  0  0  0  0  0  0  0
   -2.6999   -0.5933   -0.0994 H   0  0  0  0  0  0  0  0  0  0  0  0
   -2.0538   -1.4636    1.3122 H   0  0  0  0  0  0  0  0  0  0  0  0
   -2.0106   -2.1912   -0.3035 H   0  0  0  0  0  0  0  0  0  0  0  0
    3.0861    0.5277   -0.6431 H   0  0  0  0  0  0  0  0  0  0  0  0
  1  2  1  0
  2  3  2  0
  3  4  1  0
  3  5  1  0
  5  6  1  0
  6  7  2  0
  6  8  2  0
  6  9  1  0
  9 10  1  0
 10 11  2  0
 10  2  1  0
  1 12  1  0
  1 13  1  0
  1 14  1  0
  4 15  1  0
  4 16  1  0
  4 17  1  0
  9 18  1  0
M  END
