
     RDKit          3D

 21 21  0  0  0  0  0  0  0  0999 V2000
    2.4226   -0.5041   -0.8965 C   0  0  0  0  0  0  0  0  0  0  0  0
    1.5476   -0.7356    0.3276 C   0  0  0  0  0  0  0  0  0  0  0  0
    0.1142   -0.3108    0.0942 C   0  0  0  0  0  0  0  0  0  0  0  0
   -0.3887    0.8937    0.4437 C   0  0  0  0  0  0  0  0  0  0  0  0
    0.4083    2.0206    1.0357 C   0  0  0  0  0  0  0  0  0  0  0  0
   -1.7140    1.2506    0.2621 O   0  0  0  0  0  0  0  0  0  0  0  0
   -2.8667    0.1343    0.0165 S   0  0  0  0  0  6  0  0  0  0  0  0
   -3.2683   -0.4043    1.2973 O   0  0  0  0  0  0  0  0  0  0  0  0
   -3.8422    0.6720   -0.9048 O   0  0  0  0  0  0  0  0  0  0  0  0
   -2.0736   -1.0651   -0.7797 N   0  0  0  0  0  0  0  0  0  0  0  0
   -0.7356   -1.3565   -0.5596 C   0  0  0  0  0  0  0  0  0  0  0  0
   -0.2845   -2.4307   -0.9260 O   0  0  0  0  0  0  0  0  0  0  0  0
    3.4505   -0.8183   -0.6888 H   0  0  0  0  0  0  0  0  0  0  0  0
    2.0648   -1.0755   -1.7592 H   0  0  0  0  0  0  0  0  0  0  0  0
    2.4439    0.5548   -1.1748 H   0  0  0  0  0  0  0  0  0  0  0  0
    1.9777   -0.2064    1.1853 H   0  0  0  0  0  0  0  0  0  0  0  0
    1.5874   -1.7948    0.6107 H   0  0  0  0  0  0  0  0  0  0  0  0
    0.1825    2.1182    2.1023 H   0  0  0  0  0  0  0  0  0  0  0  0
    0.1456    2.9639    0.5440 H   0  0  0  0  0  0  0  0  0  0  0  0
    1.4878    1.8982    0.9198 H   0  0  0  0  0  0  0  0  0  0  0  0
   -2.6593   -1.8043   -1.1498 H   0  0  0  0  0  0  0  0  0  0  0  0
  1  2  1  0
  2  3  1  0
  3  4  2  0
  4  5  1  0
  4  6  1  0
  6  7  1  0
  7  8  2  0
  7  9  2  0
  7 10  1  0
 10 11  1  0
 11 12  2  0
 11  3  1  0
  1 13  1  0
  1 14  1  0
  1 15  1  0
  2 16  1  0
  2 17  1  0
  5 18  1  0
  5 19  1  0
  5 20  1  0
 10 21  1  0
M  END
