
     RDKit          3D

 21 21  0  0  0  0  0  0  0  0999 V2000
    2.3822   -0.9005    0.7641 C   0  0  0  0  0  0  0  0  0  0  0  0
    1.6924   -0.6130   -0.5609 C   0  0  0  0  0  0  0  0  0  0  0  0
    0.2146   -0.3686   -0.3777 C   0  0  0  0  0  0  0  0  0  0  0  0
   -0.3620    0.8488   -0.2803 C   0  0  0  0  0  0  0  0  0  0  0  0
    0.3813    2.1566   -0.2600 C   0  0  0  0  0  0  0  0  0  0  0  0
   -1.8465    1.0123   -0.1854 C   0  0  0  0  0  0  0  0  0  0  0  0
   -2.3800    2.1110   -0.1687 O   0  0  0  0  0  0  0  0  0  0  0  0
   -2.6272   -0.1330   -0.1468 N   0  0  0  0  0  0  0  0  0  0  0  0
   -2.0187   -1.6159    0.2176 S   0  0  0  0  0  6  0  0  0  0  0  0
   -1.9578   -1.7040    1.6598 O   0  0  0  0  0  0  0  0  0  0  0  0
   -2.7711   -2.5768   -0.5570 O   0  0  0  0  0  0  0  0  0  0  0  0
   -0.5034   -1.5536   -0.3624 O   0  0  0  0  0  0  0  0  0  0  0  0
    2.2950   -0.0507    1.4494 H   0  0  0  0  0  0  0  0  0  0  0  0
    1.9505   -1.7796    1.2543 H   0  0  0  0  0  0  0  0  0  0  0  0
    3.4471   -1.0946    0.6008 H   0  0  0  0  0  0  0  0  0  0  0  0
    1.8337   -1.4685   -1.2335 H   0  0  0  0  0  0  0  0  0  0  0  0
    2.1823    0.2296   -1.0595 H   0  0  0  0  0  0  0  0  0  0  0  0
    0.1987    2.7111   -1.1864 H   0  0  0  0  0  0  0  0  0  0  0  0
    0.0513    2.7725    0.5841 H   0  0  0  0  0  0  0  0  0  0  0  0
    1.4615    2.0377   -0.1464 H   0  0  0  0  0  0  0  0  0  0  0  0
   -3.6239   -0.0207   -0.0050 H   0  0  0  0  0  0  0  0  0  0  0  0
  1  2  1  0
  2  3  1  0
  3  4  2  0
  4  5  1  0
  4  6  1  0
  6  7  2  0
  6  8  1  0
  8  9  1  0
  9 10  2  0
  9 11  2  0
  9 12  1  0
 12  3  1  0
  1 13  1  0
  1 14  1  0
  1 15  1  0
  2 16  1  0
  2 17  1  0
  5 18  1  0
  5 19  1  0
  5 20  1  0
  8 21  1  0
M  END
