
     RDKit          3D

 15 15  0  0  0  0  0  0  0  0999 V2000
    0.4159   -0.5576    2.1784 O   0  0  0  0  0  0  0  0  0  0  0  0
   -0.0523   -0.3624    1.0677 C   0  0  0  0  0  0  0  0  0  0  0  0
   -1.4100   -0.5442    0.8389 N   0  0  0  0  0  0  0  0  0  0  0  0
   -2.2025    0.0531   -0.4783 S   0  0  0  0  0  6  0  0  0  0  0  0
   -3.1781   -0.9426   -0.8615 O   0  0  0  0  0  0  0  0  0  0  0  0
   -2.6070    1.4007   -0.1437 O   0  0  0  0  0  0  0  0  0  0  0  0
   -1.0601    0.1301   -1.6353 O   0  0  0  0  0  0  0  0  0  0  0  0
    0.2658    0.2295   -1.3053 C   0  0  0  0  0  0  0  0  0  0  0  0
    0.7938    0.0345   -0.0892 C   0  0  0  0  0  0  0  0  0  0  0  0
    2.2587    0.1755    0.1870 C   0  0  0  0  0  0  0  0  0  0  0  0
   -1.9965   -0.7446    1.6406 H   0  0  0  0  0  0  0  0  0  0  0  0
    0.8463    0.4909   -2.1814 H   0  0  0  0  0  0  0  0  0  0  0  0
    2.8175    0.4575   -0.7119 H   0  0  0  0  0  0  0  0  0  0  0  0
    2.6743   -0.7696    0.5520 H   0  0  0  0  0  0  0  0  0  0  0  0
    2.4341    0.9492    0.9418 H   0  0  0  0  0  0  0  0  0  0  0  0
  1  2  2  0
  2  3  1  0
  3  4  1  0
  4  5  2  0
  4  6  2  0
  4  7  1  0
  7  8  1  0
  8  9  2  0
  9 10  1  0
  9  2  1  0
  3 11  1  0
  8 12  1  0
 10 13  1  0
 10 14  1  0
 10 15  1  0
M  END
