
     RDKit          3D

 17 17  0  0  0  0  0  0  0  0999 V2000
   -3.1852    0.9360   -0.1461 O   0  0  0  0  0  0  0  0  0  0  0  0
   -2.4149   -0.1602   -0.2575 C   0  0  0  0  0  0  0  0  0  0  0  0
   -2.8983   -1.2523   -0.4898 O   0  0  0  0  0  0  0  0  0  0  0  0
   -0.9727    0.1299   -0.0714 C   0  0  0  0  0  0  0  0  0  0  0  0
   -0.5014    1.4254    0.1707 C   0  0  0  0  0  0  0  0  0  0  0  0
    0.8637    1.6441    0.3628 C   0  0  0  0  0  0  0  0  0  0  0  0
    1.7570    0.5715    0.2994 C   0  0  0  0  0  0  0  0  0  0  0  0
    1.3080   -0.7299    0.0064 C   0  0  0  0  0  0  0  0  0  0  0  0
   -0.0689   -0.9414   -0.1342 C   0  0  0  0  0  0  0  0  0  0  0  0
    2.1666   -1.8425    0.0632 N   0  0  0  0  0  0  0  0  0  0  0  0
    3.4380    0.8872    0.5573 Cl  0  0  0  0  0  0  0  0  0  0  0  0
   -4.0954    0.5991   -0.2856 H   0  0  0  0  0  0  0  0  0  0  0  0
   -1.1881    2.2670    0.2255 H   0  0  0  0  0  0  0  0  0  0  0  0
    1.2240    2.6486    0.5697 H   0  0  0  0  0  0  0  0  0  0  0  0
   -0.4465   -1.9504   -0.2904 H   0  0  0  0  0  0  0  0  0  0  0  0
    3.1439   -1.5964   -0.0834 H   0  0  0  0  0  0  0  0  0  0  0  0
    1.8701   -2.6357   -0.4966 H   0  0  0  0  0  0  0  0  0  0  0  0
  1  2  1  0
  2  3  2  0
  2  4  1  0
  4  5  2  0
  5  6  1  0
  6  7  2  0
  7  8  1  0
  8  9  2  0
  8 10  1  0
  7 11  1  0
  9  4  1  0
  1 12  1  0
  5 13  1  0
  6 14  1  0
  9 15  1  0
 10 16  1  0
 10 17  1  0
M  END
