
     RDKit          3D

 17 17  0  0  0  0  0  0  0  0999 V2000
    2.2203    1.4948    1.2245 O   0  0  0  0  0  0  0  0  0  0  0  0
    1.9016    0.3459    0.5979 C   0  0  0  0  0  0  0  0  0  0  0  0
    2.7441   -0.5153    0.4108 O   0  0  0  0  0  0  0  0  0  0  0  0
    0.4721    0.2820    0.1915 C   0  0  0  0  0  0  0  0  0  0  0  0
   -0.3089    1.4511    0.1900 C   0  0  0  0  0  0  0  0  0  0  0  0
   -1.6464    1.4076   -0.2027 C   0  0  0  0  0  0  0  0  0  0  0  0
   -2.2151    0.1970   -0.5848 C   0  0  0  0  0  0  0  0  0  0  0  0
   -1.4447   -0.9681   -0.5853 C   0  0  0  0  0  0  0  0  0  0  0  0
   -0.0854   -0.9405   -0.2397 C   0  0  0  0  0  0  0  0  0  0  0  0
    0.5934   -2.1688   -0.1277 N   0  0  0  0  0  0  0  0  0  0  0  0
    3.1690    1.3853    1.4439 H   0  0  0  0  0  0  0  0  0  0  0  0
    0.1180    2.4030    0.4970 H   0  0  0  0  0  0  0  0  0  0  0  0
   -2.2455    2.3148   -0.1972 H   0  0  0  0  0  0  0  0  0  0  0  0
   -3.2637    0.1530   -0.8687 H   0  0  0  0  0  0  0  0  0  0  0  0
   -1.9186   -1.9101   -0.8516 H   0  0  0  0  0  0  0  0  0  0  0  0
    0.2977   -2.8749   -0.7930 H   0  0  0  0  0  0  0  0  0  0  0  0
    1.6120   -2.0569   -0.1047 H   0  0  0  0  0  0  0  0  0  0  0  0
  1  2  1  0
  2  3  2  0
  2  4  1  0
  4  5  2  0
  5  6  1  0
  6  7  2  0
  7  8  1  0
  8  9  2  0
  9 10  1  0
  9  4  1  0
  1 11  1  0
  5 12  1  0
  6 13  1  0
  7 14  1  0
  8 15  1  0
 10 16  1  0
 10 17  1  0
M  END
