
     RDKit          3D

 16 16  0  0  0  0  0  0  0  0999 V2000
   -2.7786   -0.7694    0.4223 O   0  0  0  0  0  1  0  0  0  0  0  0
   -1.8352   -1.2649   -0.2154 N   0  0  0  0  0  4  0  0  0  0  0  0
   -1.9212   -2.2828   -0.9190 O   0  0  0  0  0  0  0  0  0  0  0  0
   -0.5236   -0.6241   -0.1089 C   0  0  0  0  0  0  0  0  0  0  0  0
    0.6143   -1.4418   -0.2320 C   0  0  0  0  0  0  0  0  0  0  0  0
    1.8841   -0.8757   -0.1465 C   0  0  0  0  0  0  0  0  0  0  0  0
    2.0154    0.4971    0.0440 C   0  0  0  0  0  0  0  0  0  0  0  0
    0.8791    1.3051    0.1632 C   0  0  0  0  0  0  0  0  0  0  0  0
   -0.4132    0.7593    0.1363 C   0  0  0  0  0  0  0  0  0  0  0  0
   -1.5017    1.6499    0.1218 N   0  0  0  0  0  0  0  0  0  0  0  0
    0.5206   -2.5129   -0.4007 H   0  0  0  0  0  0  0  0  0  0  0  0
    2.7690   -1.5001   -0.2456 H   0  0  0  0  0  0  0  0  0  0  0  0
    3.0047    0.9477    0.0842 H   0  0  0  0  0  0  0  0  0  0  0  0
    1.0142    2.3793    0.2737 H   0  0  0  0  0  0  0  0  0  0  0  0
   -1.3415    2.5186    0.6235 H   0  0  0  0  0  0  0  0  0  0  0  0
   -2.3864    1.2147    0.3991 H   0  0  0  0  0  0  0  0  0  0  0  0
  1  2  1  0
  2  3  2  0
  2  4  1  0
  4  5  2  0
  5  6  1  0
  6  7  2  0
  7  8  1  0
  8  9  2  0
  9 10  1  0
  9  4  1  0
  5 11  1  0
  6 12  1  0
  7 13  1  0
  8 14  1  0
 10 15  1  0
 10 16  1  0
M  CHG  2   1  -1   2   1
M  END
