
     RDKit          3D

 30 30  0  0  0  0  0  0  0  0999 V2000
    5.7855   -2.1765   -0.6068 O   0  0  0  0  0  0  0  0  0  0  0  0
    5.3446   -0.9056   -0.5267 C   0  0  0  0  0  0  0  0  0  0  0  0
    6.0359    0.0163   -0.9252 O   0  0  0  0  0  0  0  0  0  0  0  0
    3.9870   -0.8174    0.1048 C   0  0  0  0  0  0  0  0  0  0  0  0
    3.4925    0.6238    0.0955 C   0  0  0  0  0  0  0  0  0  0  0  0
    2.2087    0.7820    0.7636 N   0  0  0  0  0  0  0  0  0  0  0  0
    1.0493    0.3466    0.1446 C   0  0  0  0  0  0  0  0  0  0  0  0
    1.0557   -0.2336   -0.9317 O   0  0  0  0  0  0  0  0  0  0  0  0
   -0.0494    0.6451    0.9204 N   0  0  0  0  0  0  0  0  0  0  0  0
   -1.4060    0.4383    0.6034 C   0  0  0  0  0  0  0  0  0  0  0  0
   -2.3444    0.6720    1.6168 C   0  0  0  0  0  0  0  0  0  0  0  0
   -3.7116    0.4970    1.3773 C   0  0  0  0  0  0  0  0  0  0  0  0
   -4.1578    0.0889    0.1165 C   0  0  0  0  0  0  0  0  0  0  0  0
   -3.2255   -0.1395   -0.8999 C   0  0  0  0  0  0  0  0  0  0  0  0
   -1.8573    0.0370   -0.6559 C   0  0  0  0  0  0  0  0  0  0  0  0
   -5.6153   -0.0840   -0.0934 C   0  0  0  0  0  0  0  0  0  0  0  0
   -6.4806    0.0984    0.7431 O   0  0  0  0  0  0  0  0  0  0  0  0
   -5.9214   -0.4767   -1.3421 O   0  0  0  0  0  0  0  0  0  0  0  0
    6.6621   -2.1040   -1.0390 H   0  0  0  0  0  0  0  0  0  0  0  0
    3.3029   -1.4658   -0.4518 H   0  0  0  0  0  0  0  0  0  0  0  0
    4.0564   -1.1840    1.1348 H   0  0  0  0  0  0  0  0  0  0  0  0
    3.4017    1.0012   -0.9301 H   0  0  0  0  0  0  0  0  0  0  0  0
    4.2014    1.2715    0.6241 H   0  0  0  0  0  0  0  0  0  0  0  0
    2.0947    1.6432    1.2785 H   0  0  0  0  0  0  0  0  0  0  0  0
    0.1588    0.9046    1.8728 H   0  0  0  0  0  0  0  0  0  0  0  0
   -2.0285    0.9901    2.6071 H   0  0  0  0  0  0  0  0  0  0  0  0
   -4.4253    0.6803    2.1784 H   0  0  0  0  0  0  0  0  0  0  0  0
   -3.5467   -0.4549   -1.8899 H   0  0  0  0  0  0  0  0  0  0  0  0
   -1.1687   -0.1437   -1.4764 H   0  0  0  0  0  0  0  0  0  0  0  0
   -6.8985   -0.5506   -1.3344 H   0  0  0  0  0  0  0  0  0  0  0  0
  1  2  1  0
  2  3  2  0
  2  4  1  0
  4  5  1  0
  5  6  1  0
  6  7  1  0
  7  8  2  0
  7  9  1  0
  9 10  1  0
 10 11  2  0
 11 12  1  0
 12 13  2  0
 13 14  1  0
 14 15  2  0
 13 16  1  0
 16 17  2  0
 16 18  1  0
 15 10  1  0
  1 19  1  0
  4 20  1  0
  4 21  1  0
  5 22  1  0
  5 23  1  0
  6 24  1  0
  9 25  1  0
 11 26  1  0
 12 27  1  0
 14 28  1  0
 15 29  1  0
 18 30  1  0
M  END
