
     RDKit          3D

 27 27  0  0  0  0  0  0  0  0999 V2000
   -5.2490   -1.0371    0.9671 N   0  0  0  0  0  0  0  0  0  0  0  0
   -4.3522   -1.7584    1.1155 C   0  0  0  0  0  0  0  0  0  0  0  0
   -3.2093   -2.6675    1.2597 C   0  0  0  0  0  0  0  0  0  0  0  0
   -2.5514   -2.9262   -0.0966 C   0  0  0  0  0  0  0  0  0  0  0  0
   -1.9041   -1.7558   -0.6713 N   0  0  0  0  0  0  0  0  0  0  0  0
   -0.7132   -1.2891   -0.1497 C   0  0  0  0  0  0  0  0  0  0  0  0
   -0.1494   -1.8540    0.7774 O   0  0  0  0  0  0  0  0  0  0  0  0
   -0.2930   -0.1604   -0.8149 N   0  0  0  0  0  0  0  0  0  0  0  0
    0.8326    0.6366   -0.5279 C   0  0  0  0  0  0  0  0  0  0  0  0
    1.6417    0.4635    0.5993 C   0  0  0  0  0  0  0  0  0  0  0  0
    2.7428    1.2994    0.8239 C   0  0  0  0  0  0  0  0  0  0  0  0
    3.0342    2.3202   -0.0866 C   0  0  0  0  0  0  0  0  0  0  0  0
    2.2304    2.5096   -1.2160 C   0  0  0  0  0  0  0  0  0  0  0  0
    1.1332    1.6680   -1.4294 C   0  0  0  0  0  0  0  0  0  0  0  0
    4.1874    3.1989    0.1443 N   0  0  0  0  0  4  0  0  0  0  0  0
    4.8676    3.0044    1.1615 O   0  0  0  0  0  1  0  0  0  0  0  0
    4.4123    4.0846   -0.6932 O   0  0  0  0  0  0  0  0  0  0  0  0
   -3.5578   -3.6204    1.6739 H   0  0  0  0  0  0  0  0  0  0  0  0
   -2.4906   -2.2493    1.9722 H   0  0  0  0  0  0  0  0  0  0  0  0
   -1.7927   -3.7097    0.0143 H   0  0  0  0  0  0  0  0  0  0  0  0
   -3.2873   -3.2741   -0.8303 H   0  0  0  0  0  0  0  0  0  0  0  0
   -2.5021   -1.0711   -1.1144 H   0  0  0  0  0  0  0  0  0  0  0  0
   -0.7844    0.0439   -1.6722 H   0  0  0  0  0  0  0  0  0  0  0  0
    1.4407   -0.3149    1.3302 H   0  0  0  0  0  0  0  0  0  0  0  0
    3.3539    1.1371    1.7097 H   0  0  0  0  0  0  0  0  0  0  0  0
    2.4406    3.2999   -1.9339 H   0  0  0  0  0  0  0  0  0  0  0  0
    0.5194    1.8311   -2.3125 H   0  0  0  0  0  0  0  0  0  0  0  0
  1  2  3  0
  2  3  1  0
  3  4  1  0
  4  5  1  0
  5  6  1  0
  6  7  2  0
  6  8  1  0
  8  9  1  0
  9 10  2  0
 10 11  1  0
 11 12  2  0
 12 13  1  0
 13 14  2  0
 12 15  1  0
 15 16  1  0
 15 17  2  0
 14  9  1  0
  3 18  1  0
  3 19  1  0
  4 20  1  0
  4 21  1  0
  5 22  1  0
  8 23  1  0
 10 24  1  0
 11 25  1  0
 13 26  1  0
 14 27  1  0
M  CHG  2  15   1  16  -1
M  END
