
     RDKit          3D

 74 78  0  0  0  0  0  0  0  0999 V2000
   -2.9038   -5.8815   -0.6274 O   0  0  0  0  0  0  0  0  0  0  0  0
   -1.7499   -5.6789    0.1900 C   0  0  0  0  0  0  0  0  0  0  0  0
   -1.7219   -4.2392    0.7128 C   0  0  0  0  0  0  0  0  0  0  0  0
   -1.7436   -3.3889   -0.4506 O   0  0  0  0  0  0  0  0  0  0  0  0
   -1.7380   -1.9929   -0.1324 C   0  0  0  0  0  0  0  0  0  0  0  0
   -0.5021   -1.5691    0.4592 O   0  0  0  0  0  0  0  0  0  0  0  0
    0.5279   -1.2763   -0.3905 C   0  0  0  0  0  0  0  0  0  0  0  0
    0.6838   -1.7929   -1.6773 C   0  0  0  0  0  0  0  0  0  0  0  0
    1.7737   -1.4033   -2.4543 C   0  0  0  0  0  0  0  0  0  0  0  0
    1.8456   -1.9234   -3.7186 O   0  0  0  0  0  0  0  0  0  0  0  0
    2.7244   -0.5164   -1.9431 C   0  0  0  0  0  0  0  0  0  0  0  0
    2.5965   -0.0370   -0.6408 C   0  0  0  0  0  0  0  0  0  0  0  0
    1.4935   -0.4073    0.1284 C   0  0  0  0  0  0  0  0  0  0  0  0
    3.4945    0.8191   -0.0591 O   0  0  0  0  0  0  0  0  0  0  0  0
    4.8055    0.7503   -0.6471 C   0  0  0  0  0  0  0  0  0  0  0  0
    4.7262    1.0221   -2.1446 C   0  0  0  0  0  0  0  0  0  0  0  0
    3.8523   -0.0330   -2.7591 C   0  0  0  0  0  0  0  0  0  0  0  0
    4.0053   -0.4495   -3.9051 O   0  0  0  0  0  0  0  0  0  0  0  0
    5.6969    1.6925    0.1471 C   0  0  0  0  0  0  0  0  0  0  0  0
    6.1815    2.9109   -0.3637 C   0  0  0  0  0  0  0  0  0  0  0  0
    7.0000    3.7402    0.4102 C   0  0  0  0  0  0  0  0  0  0  0  0
    7.3316    3.3585    1.6994 C   0  0  0  0  0  0  0  0  0  0  0  0
    6.8545    2.1656    2.2301 C   0  0  0  0  0  0  0  0  0  0  0  0
    6.0409    1.3331    1.4673 C   0  0  0  0  0  0  0  0  0  0  0  0
    7.2125    1.8518    3.5117 O   0  0  0  0  0  0  0  0  0  0  0  0
    8.1318    4.1698    2.4507 O   0  0  0  0  0  0  0  0  0  0  0  0
   -2.8920   -1.5999    0.8241 C   0  0  0  0  0  0  0  0  0  0  0  0
   -3.7804   -2.8166    1.1035 C   0  0  0  0  0  0  0  0  0  0  0  0
   -2.9253   -3.9674    1.6351 C   0  0  0  0  0  0  0  0  0  0  0  0
   -2.4374   -3.5992    2.9389 O   0  0  0  0  0  0  0  0  0  0  0  0
   -4.7688   -2.4770    2.0923 O   0  0  0  0  0  0  0  0  0  0  0  0
   -3.7240   -0.5940    0.2023 O   0  0  0  0  0  0  0  0  0  0  0  0
   -3.7984    0.6268    0.9412 C   0  0  0  0  0  0  0  0  0  0  0  0
   -4.9810    1.3329    0.5335 O   0  0  0  0  0  0  0  0  0  0  0  0
   -4.9447    1.7855   -0.8283 C   0  0  0  0  0  0  0  0  0  0  0  0
   -6.2884    2.4458   -1.1159 C   0  0  0  0  0  0  0  0  0  0  0  0
   -3.7640    2.7478   -1.0497 C   0  0  0  0  0  0  0  0  0  0  0  0
   -2.4624    2.0260   -0.6713 C   0  0  0  0  0  0  0  0  0  0  0  0
   -2.5361    1.5023    0.7709 C   0  0  0  0  0  0  0  0  0  0  0  0
   -2.5531    2.6073    1.6935 O   0  0  0  0  0  0  0  0  0  0  0  0
   -1.3526    2.9197   -0.8105 O   0  0  0  0  0  0  0  0  0  0  0  0
   -3.8961    3.9131   -0.2107 O   0  0  0  0  0  0  0  0  0  0  0  0
   -2.8102   -5.2501   -1.3669 H   0  0  0  0  0  0  0  0  0  0  0  0
   -1.7713   -6.4032    1.0101 H   0  0  0  0  0  0  0  0  0  0  0  0
   -0.8708   -5.8813   -0.4306 H   0  0  0  0  0  0  0  0  0  0  0  0
   -0.7749   -4.0878    1.2442 H   0  0  0  0  0  0  0  0  0  0  0  0
   -1.8925   -1.4522   -1.0752 H   0  0  0  0  0  0  0  0  0  0  0  0
   -0.0217   -2.5002   -2.1016 H   0  0  0  0  0  0  0  0  0  0  0  0
    2.6392   -1.5458   -4.1621 H   0  0  0  0  0  0  0  0  0  0  0  0
    1.3820   -0.0127    1.1355 H   0  0  0  0  0  0  0  0  0  0  0  0
    5.2012   -0.2654   -0.4894 H   0  0  0  0  0  0  0  0  0  0  0  0
    4.2713    1.9925   -2.3714 H   0  0  0  0  0  0  0  0  0  0  0  0
    5.7202    0.9691   -2.6012 H   0  0  0  0  0  0  0  0  0  0  0  0
    5.9330    3.2452   -1.3682 H   0  0  0  0  0  0  0  0  0  0  0  0
    7.3727    4.6783    0.0090 H   0  0  0  0  0  0  0  0  0  0  0  0
    5.6595    0.4052    1.8853 H   0  0  0  0  0  0  0  0  0  0  0  0
    6.7974    1.0029    3.7437 H   0  0  0  0  0  0  0  0  0  0  0  0
    8.2100    3.7082    3.3086 H   0  0  0  0  0  0  0  0  0  0  0  0
   -2.4912   -1.2069    1.7674 H   0  0  0  0  0  0  0  0  0  0  0  0
   -4.3215   -3.1226    0.1993 H   0  0  0  0  0  0  0  0  0  0  0  0
   -3.5394   -4.8599    1.7962 H   0  0  0  0  0  0  0  0  0  0  0  0
   -3.2363   -3.3214    3.4333 H   0  0  0  0  0  0  0  0  0  0  0  0
   -5.3313   -1.7904    1.6829 H   0  0  0  0  0  0  0  0  0  0  0  0
   -3.9558    0.4058    2.0033 H   0  0  0  0  0  0  0  0  0  0  0  0
   -4.8449    0.9164   -1.4904 H   0  0  0  0  0  0  0  0  0  0  0  0
   -7.0965    1.7130   -1.0105 H   0  0  0  0  0  0  0  0  0  0  0  0
   -6.5052    3.2469   -0.4008 H   0  0  0  0  0  0  0  0  0  0  0  0
   -6.3210    2.8546   -2.1303 H   0  0  0  0  0  0  0  0  0  0  0  0
   -3.7137    3.0979   -2.0867 H   0  0  0  0  0  0  0  0  0  0  0  0
   -2.2944    1.1922   -1.3623 H   0  0  0  0  0  0  0  0  0  0  0  0
   -1.6286    0.9358    0.9957 H   0  0  0  0  0  0  0  0  0  0  0  0
   -3.2673    3.2108    1.3875 H   0  0  0  0  0  0  0  0  0  0  0  0
   -1.4468    3.5593   -0.0732 H   0  0  0  0  0  0  0  0  0  0  0  0
   -4.5661    4.4890   -0.6229 H   0  0  0  0  0  0  0  0  0  0  0  0
  1  2  1  0
  2  3  1  0
  3  4  1  0
  4  5  1  0
  5  6  1  0
  6  7  1  0
  7  8  2  0
  8  9  1  0
  9 10  1  0
  9 11  2  0
 11 12  1  0
 12 13  2  0
 12 14  1  0
 14 15  1  0
 15 16  1  0
 16 17  1  0
 17 18  2  0
 15 19  1  0
 19 20  2  0
 20 21  1  0
 21 22  2  0
 22 23  1  0
 23 24  2  0
 23 25  1  0
 22 26  1  0
  5 27  1  0
 27 28  1  0
 28 29  1  0
 29 30  1  0
 28 31  1  0
 27 32  1  0
 32 33  1  0
 33 34  1  0
 34 35  1  0
 35 36  1  0
 35 37  1  0
 37 38  1  0
 38 39  1  0
 39 40  1  0
 38 41  1  0
 37 42  1  0
 29  3  1  0
 39 33  1  0
 13  7  1  0
 24 19  1  0
 17 11  1  0
  1 43  1  0
  2 44  1  0
  2 45  1  0
  3 46  1  0
  5 47  1  0
  8 48  1  0
 10 49  1  0
 13 50  1  0
 15 51  1  0
 16 52  1  0
 16 53  1  0
 20 54  1  0
 21 55  1  0
 24 56  1  0
 25 57  1  0
 26 58  1  0
 27 59  1  0
 28 60  1  0
 29 61  1  0
 30 62  1  0
 31 63  1  0
 33 64  1  0
 35 65  1  0
 36 66  1  0
 36 67  1  0
 36 68  1  0
 37 69  1  0
 38 70  1  0
 39 71  1  0
 40 72  1  0
 41 73  1  0
 42 74  1  0
M  END
