
     RDKit          3D

 41 43  0  0  0  0  0  0  0  0999 V2000
   -1.4188    2.8079    0.0784 C   0  0  0  0  0  0  0  0  0  0  0  0
   -1.7109    1.3319   -0.2093 C   0  0  0  0  0  0  0  0  0  0  0  0
   -3.0062    0.9386    0.5304 C   0  0  0  0  0  0  0  0  0  0  0  0
   -3.3884   -0.5263    0.3480 C   0  0  0  0  0  0  0  0  0  0  0  0
   -2.2353   -1.4702    0.6824 C   0  0  0  0  0  0  0  0  0  0  0  0
   -0.9345   -1.1326   -0.0859 C   0  0  0  0  0  0  0  0  0  0  0  0
   -0.5611    0.3712    0.2019 C   0  0  0  0  0  0  0  0  0  0  0  0
    0.8186    0.6757   -0.4052 C   0  0  0  0  0  0  0  0  0  0  0  0
    1.3621    1.9631   -0.1262 O   0  0  0  0  0  0  0  0  0  0  0  0
    2.7330    1.8621   -0.1935 C   0  0  0  0  0  0  0  0  0  0  0  0
    3.4909    2.8171   -0.1666 O   0  0  0  0  0  0  0  0  0  0  0  0
    3.1319    0.4031   -0.3127 C   0  0  0  0  0  0  0  0  0  0  0  0
    1.8623   -0.2394    0.2093 C   0  0  0  0  0  0  0  0  0  0  0  0
    1.5970   -1.6968   -0.1109 C   0  0  0  0  0  0  0  0  0  0  0  0
    0.2028   -2.0763    0.4129 C   0  0  0  0  0  0  0  0  0  0  0  0
    4.3599    0.0634    0.5105 C   0  0  0  0  0  0  0  0  0  0  0  0
   -1.1573   -1.4188   -1.5942 C   0  0  0  0  0  0  0  0  0  0  0  0
   -1.0655    2.9533    1.1045 H   0  0  0  0  0  0  0  0  0  0  0  0
   -0.6695    3.2057   -0.6115 H   0  0  0  0  0  0  0  0  0  0  0  0
   -2.3191    3.4177   -0.0570 H   0  0  0  0  0  0  0  0  0  0  0  0
   -1.8884    1.2494   -1.2879 H   0  0  0  0  0  0  0  0  0  0  0  0
   -3.8375    1.5656    0.1849 H   0  0  0  0  0  0  0  0  0  0  0  0
   -2.8886    1.1411    1.6033 H   0  0  0  0  0  0  0  0  0  0  0  0
   -4.2440   -0.7594    0.9928 H   0  0  0  0  0  0  0  0  0  0  0  0
   -3.7286   -0.6922   -0.6802 H   0  0  0  0  0  0  0  0  0  0  0  0
   -2.5436   -2.5027    0.4754 H   0  0  0  0  0  0  0  0  0  0  0  0
   -2.0467   -1.4165    1.7629 H   0  0  0  0  0  0  0  0  0  0  0  0
   -0.4560    0.4876    1.2924 H   0  0  0  0  0  0  0  0  0  0  0  0
    0.7705    0.5821   -1.4977 H   0  0  0  0  0  0  0  0  0  0  0  0
    3.2966    0.1738   -1.3718 H   0  0  0  0  0  0  0  0  0  0  0  0
    1.8449   -0.1207    1.3049 H   0  0  0  0  0  0  0  0  0  0  0  0
    1.6679   -1.8795   -1.1886 H   0  0  0  0  0  0  0  0  0  0  0  0
    2.3503   -2.3337    0.3664 H   0  0  0  0  0  0  0  0  0  0  0  0
    0.2332   -2.0535    1.5107 H   0  0  0  0  0  0  0  0  0  0  0  0
   -0.0151   -3.1152    0.1354 H   0  0  0  0  0  0  0  0  0  0  0  0
    5.2394    0.5887    0.1230 H   0  0  0  0  0  0  0  0  0  0  0  0
    4.2392    0.3630    1.5574 H   0  0  0  0  0  0  0  0  0  0  0  0
    4.5668   -1.0109    0.4818 H   0  0  0  0  0  0  0  0  0  0  0  0
   -0.2590   -1.2436   -2.1921 H   0  0  0  0  0  0  0  0  0  0  0  0
   -1.9510   -0.8073   -2.0304 H   0  0  0  0  0  0  0  0  0  0  0  0
   -1.4425   -2.4665   -1.7477 H   0  0  0  0  0  0  0  0  0  0  0  0
  1  2  1  0
  2  3  1  0
  3  4  1  0
  4  5  1  0
  5  6  1  0
  6  7  1  0
  7  8  1  0
  8  9  1  0
  9 10  1  0
 10 11  2  0
 10 12  1  0
 12 13  1  0
 13 14  1  0
 14 15  1  0
 12 16  1  0
  6 17  1  0
  7  2  1  0
 13  8  1  0
 15  6  1  0
  1 18  1  0
  1 19  1  0
  1 20  1  0
  2 21  1  0
  3 22  1  0
  3 23  1  0
  4 24  1  0
  4 25  1  0
  5 26  1  0
  5 27  1  0
  7 28  1  0
  8 29  1  0
 12 30  1  0
 13 31  1  0
 14 32  1  0
 14 33  1  0
 15 34  1  0
 15 35  1  0
 16 36  1  0
 16 37  1  0
 16 38  1  0
 17 39  1  0
 17 40  1  0
 17 41  1  0
M  END
