
     RDKit          3D

 57 61  0  0  0  0  0  0  0  0999 V2000
    1.7049   -0.5977   -2.1376 C   0  0  0  0  0  0  0  0  0  0  0  0
    2.3367   -0.5418   -0.7659 C   0  0  0  0  0  0  0  0  0  0  0  0
    1.7021   -0.6766    0.4284 C   0  0  0  0  0  0  0  0  0  0  0  0
    0.2874   -0.8991    0.4080 C   0  0  0  0  0  0  0  0  0  0  0  0
   -0.3890   -1.9483   -0.0218 N   0  0  0  0  0  0  0  0  0  0  0  0
   -1.7190   -1.6524    0.1825 C   0  0  0  0  0  0  0  0  0  0  0  0
   -1.8606   -0.3927    0.7473 C   0  0  0  0  0  0  0  0  0  0  0  0
   -0.5733    0.0797    0.8875 N   0  0  0  0  0  0  0  0  0  0  0  0
   -0.2522    1.3099    1.4541 N   0  0  0  0  0  0  0  0  0  0  0  0
    0.2168    2.4087    0.7010 C   0  0  0  0  0  0  0  0  0  0  0  0
   -0.0190    2.5350   -0.6735 C   0  0  0  0  0  0  0  0  0  0  0  0
    0.4271    3.6579   -1.3763 C   0  0  0  0  0  0  0  0  0  0  0  0
    1.0887    4.6840   -0.7072 C   0  0  0  0  0  0  0  0  0  0  0  0
    1.2933    4.5932    0.6665 C   0  0  0  0  0  0  0  0  0  0  0  0
    0.8490    3.4684    1.3661 C   0  0  0  0  0  0  0  0  0  0  0  0
   -3.1037    0.1672    1.0573 C   0  0  0  0  0  0  0  0  0  0  0  0
   -4.2469   -0.6061    0.7738 C   0  0  0  0  0  0  0  0  0  0  0  0
   -4.1699   -1.9089    0.2069 C   0  0  0  0  0  0  0  0  0  0  0  0
   -2.8788   -2.4218   -0.0907 C   0  0  0  0  0  0  0  0  0  0  0  0
   -2.7065   -3.7000   -0.6576 C   0  0  0  0  0  0  0  0  0  0  0  0
   -3.8107   -4.4985   -0.9363 C   0  0  0  0  0  0  0  0  0  0  0  0
   -5.0873   -4.0302   -0.6504 C   0  0  0  0  0  0  0  0  0  0  0  0
   -5.2658   -2.7603   -0.0881 C   0  0  0  0  0  0  0  0  0  0  0  0
   -5.8235    0.1371    1.1444 S   0  0  0  0  0  6  0  0  0  0  0  0
   -5.6227    1.5529    1.3760 O   0  0  0  0  0  0  0  0  0  0  0  0
   -6.4991   -0.6966    2.1125 O   0  0  0  0  0  0  0  0  0  0  0  0
   -6.6476    0.0759   -0.2414 O   0  0  0  0  0  0  0  0  0  0  0  0
    2.4550   -0.6319    1.7449 C   0  0  0  0  0  0  0  0  0  0  0  0
    3.7873   -0.2672   -0.8267 C   0  0  0  0  0  0  0  0  0  0  0  0
    4.6935   -1.3030   -1.0818 C   0  0  0  0  0  0  0  0  0  0  0  0
    6.0632   -1.0394   -1.1345 C   0  0  0  0  0  0  0  0  0  0  0  0
    6.5329    0.2587   -0.9345 C   0  0  0  0  0  0  0  0  0  0  0  0
    5.6351    1.2953   -0.6810 C   0  0  0  0  0  0  0  0  0  0  0  0
    4.2650    1.0347   -0.6273 C   0  0  0  0  0  0  0  0  0  0  0  0
    1.9738    0.2921   -2.7191 H   0  0  0  0  0  0  0  0  0  0  0  0
    0.6126   -0.6342   -2.1187 H   0  0  0  0  0  0  0  0  0  0  0  0
    2.0540   -1.4821   -2.6824 H   0  0  0  0  0  0  0  0  0  0  0  0
    0.2500    1.1877    2.3270 H   0  0  0  0  0  0  0  0  0  0  0  0
   -0.5496    1.7616   -1.2222 H   0  0  0  0  0  0  0  0  0  0  0  0
    0.2486    3.7329   -2.4458 H   0  0  0  0  0  0  0  0  0  0  0  0
    1.4295    5.5601   -1.2535 H   0  0  0  0  0  0  0  0  0  0  0  0
    1.7900    5.4017    1.1969 H   0  0  0  0  0  0  0  0  0  0  0  0
    1.0050    3.4281    2.4410 H   0  0  0  0  0  0  0  0  0  0  0  0
   -3.1684    1.1610    1.4928 H   0  0  0  0  0  0  0  0  0  0  0  0
   -1.7070   -4.0722   -0.8775 H   0  0  0  0  0  0  0  0  0  0  0  0
   -3.6732   -5.4853   -1.3703 H   0  0  0  0  0  0  0  0  0  0  0  0
   -5.9536   -4.6537   -0.8597 H   0  0  0  0  0  0  0  0  0  0  0  0
   -6.2896   -2.4569    0.1223 H   0  0  0  0  0  0  0  0  0  0  0  0
   -6.8733    0.9980   -0.4872 H   0  0  0  0  0  0  0  0  0  0  0  0
    3.4352   -1.1143    1.6844 H   0  0  0  0  0  0  0  0  0  0  0  0
    1.8963   -1.1674    2.5219 H   0  0  0  0  0  0  0  0  0  0  0  0
    2.5854    0.4030    2.0780 H   0  0  0  0  0  0  0  0  0  0  0  0
    4.3363   -2.3186   -1.2343 H   0  0  0  0  0  0  0  0  0  0  0  0
    6.7632   -1.8473   -1.3312 H   0  0  0  0  0  0  0  0  0  0  0  0
    7.5999    0.4624   -0.9768 H   0  0  0  0  0  0  0  0  0  0  0  0
    6.0013    2.3070   -0.5262 H   0  0  0  0  0  0  0  0  0  0  0  0
    3.5711    1.8502   -0.4333 H   0  0  0  0  0  0  0  0  0  0  0  0
  1  2  1  0
  2  3  2  3
  3  4  1  0
  4  5  2  0
  5  6  1  0
  6  7  2  0
  7  8  1  0
  8  9  1  0
  9 10  1  0
 10 11  2  0
 11 12  1  0
 12 13  2  0
 13 14  1  0
 14 15  2  0
  7 16  1  0
 16 17  2  0
 17 18  1  0
 18 19  2  0
 19 20  1  0
 20 21  2  0
 21 22  1  0
 22 23  2  0
 17 24  1  0
 24 25  2  0
 24 26  2  0
 24 27  1  0
  3 28  1  0
  2 29  1  0
 29 30  2  0
 30 31  1  0
 31 32  2  0
 32 33  1  0
 33 34  2  0
  8  4  1  0
 15 10  1  0
 23 18  1  0
 34 29  1  0
 19  6  1  0
  1 35  1  0
  1 36  1  0
  1 37  1  0
  9 38  1  0
 11 39  1  0
 12 40  1  0
 13 41  1  0
 14 42  1  0
 15 43  1  0
 16 44  1  0
 20 45  1  0
 21 46  1  0
 22 47  1  0
 23 48  1  0
 27 49  1  0
 28 50  1  0
 28 51  1  0
 28 52  1  0
 30 53  1  0
 31 54  1  0
 32 55  1  0
 33 56  1  0
 34 57  1  0
M  END
