
     RDKit          3D

 47 51  0  0  0  0  0  0  0  0999 V2000
   -2.3891   -3.9547    1.7439 O   0  0  0  0  0  0  0  0  0  0  0  0
   -3.4611   -3.2653    0.7536 S   0  0  0  0  0  6  0  0  0  0  0  0
   -3.5547   -4.1023   -0.4210 O   0  0  0  0  0  0  0  0  0  0  0  0
   -4.6063   -2.9908    1.5946 O   0  0  0  0  0  0  0  0  0  0  0  0
   -2.7506   -1.7108    0.2622 C   0  0  0  0  0  0  0  0  0  0  0  0
   -1.4341   -1.4394    0.6791 C   0  0  0  0  0  0  0  0  0  0  0  0
   -0.8830   -0.2123    0.2933 C   0  0  0  0  0  0  0  0  0  0  0  0
    0.3535    0.3578    0.5170 N   0  0  0  0  0  0  0  0  0  0  0  0
    1.3359   -0.2025    1.3262 N   0  0  0  0  0  0  0  0  0  0  0  0
    2.3150   -1.1092    0.8656 C   0  0  0  0  0  0  0  0  0  0  0  0
    2.1998   -1.8010   -0.3468 C   0  0  0  0  0  0  0  0  0  0  0  0
    3.1667   -2.7333   -0.7345 C   0  0  0  0  0  0  0  0  0  0  0  0
    4.2505   -3.0036    0.0963 C   0  0  0  0  0  0  0  0  0  0  0  0
    4.3626   -2.3495    1.3196 C   0  0  0  0  0  0  0  0  0  0  0  0
    3.3950   -1.4181    1.7049 C   0  0  0  0  0  0  0  0  0  0  0  0
    0.3591    1.6094   -0.0858 C   0  0  0  0  0  0  0  0  0  0  0  0
   -0.8057    1.8444   -0.6669 N   0  0  0  0  0  0  0  0  0  0  0  0
   -1.5773    0.7243   -0.4569 C   0  0  0  0  0  0  0  0  0  0  0  0
   -2.9023    0.4351   -0.8721 C   0  0  0  0  0  0  0  0  0  0  0  0
   -3.5115   -0.7980   -0.5185 C   0  0  0  0  0  0  0  0  0  0  0  0
   -4.8348   -1.0047   -0.9852 C   0  0  0  0  0  0  0  0  0  0  0  0
   -5.5073   -0.0426   -1.7482 C   0  0  0  0  0  0  0  0  0  0  0  0
   -4.8849    1.1570   -2.0736 C   0  0  0  0  0  0  0  0  0  0  0  0
   -3.5858    1.3990   -1.6391 C   0  0  0  0  0  0  0  0  0  0  0  0
    1.4605    2.5743   -0.0211 C   0  0  0  0  0  0  0  0  0  0  0  0
    2.7852    2.2160   -0.3014 C   0  0  0  0  0  0  0  0  0  0  0  0
    3.8100    3.1630   -0.2228 C   0  0  0  0  0  0  0  0  0  0  0  0
    3.5191    4.4806    0.1245 C   0  0  0  0  0  0  0  0  0  0  0  0
    2.2029    4.8559    0.3837 C   0  0  0  0  0  0  0  0  0  0  0  0
    1.1794    3.9089    0.3054 C   0  0  0  0  0  0  0  0  0  0  0  0
   -2.8845   -4.2843    2.5234 H   0  0  0  0  0  0  0  0  0  0  0  0
   -0.8506   -2.1438    1.2646 H   0  0  0  0  0  0  0  0  0  0  0  0
    1.7068    0.4801    1.9813 H   0  0  0  0  0  0  0  0  0  0  0  0
    1.3613   -1.6272   -1.0159 H   0  0  0  0  0  0  0  0  0  0  0  0
    3.0661   -3.2537   -1.6839 H   0  0  0  0  0  0  0  0  0  0  0  0
    4.9993   -3.7318   -0.2045 H   0  0  0  0  0  0  0  0  0  0  0  0
    5.1979   -2.5698    1.9793 H   0  0  0  0  0  0  0  0  0  0  0  0
    3.4937   -0.9342    2.6735 H   0  0  0  0  0  0  0  0  0  0  0  0
   -5.3746   -1.9244   -0.7667 H   0  0  0  0  0  0  0  0  0  0  0  0
   -6.5219   -0.2368   -2.0884 H   0  0  0  0  0  0  0  0  0  0  0  0
   -5.4083    1.9023   -2.6666 H   0  0  0  0  0  0  0  0  0  0  0  0
   -3.0999    2.3382   -1.8992 H   0  0  0  0  0  0  0  0  0  0  0  0
    3.0362    1.2040   -0.6079 H   0  0  0  0  0  0  0  0  0  0  0  0
    4.8339    2.8729   -0.4457 H   0  0  0  0  0  0  0  0  0  0  0  0
    4.3158    5.2182    0.1789 H   0  0  0  0  0  0  0  0  0  0  0  0
    1.9695    5.8864    0.6390 H   0  0  0  0  0  0  0  0  0  0  0  0
    0.1525    4.2161    0.4976 H   0  0  0  0  0  0  0  0  0  0  0  0
  1  2  1  0
  2  3  2  0
  2  4  2  0
  2  5  1  0
  5  6  2  0
  6  7  1  0
  7  8  1  0
  8  9  1  0
  9 10  1  0
 10 11  2  0
 11 12  1  0
 12 13  2  0
 13 14  1  0
 14 15  2  0
  8 16  1  0
 16 17  2  0
 17 18  1  0
 18 19  1  0
 19 20  2  0
 20 21  1  0
 21 22  2  0
 22 23  1  0
 23 24  2  0
 16 25  1  0
 25 26  2  0
 26 27  1  0
 27 28  2  0
 28 29  1  0
 29 30  2  0
 20  5  1  0
 30 25  1  0
 18  7  2  0
 24 19  1  0
 15 10  1  0
  1 31  1  0
  6 32  1  0
  9 33  1  0
 11 34  1  0
 12 35  1  0
 13 36  1  0
 14 37  1  0
 15 38  1  0
 21 39  1  0
 22 40  1  0
 23 41  1  0
 24 42  1  0
 26 43  1  0
 27 44  1  0
 28 45  1  0
 29 46  1  0
 30 47  1  0
M  END
