
     RDKit          3D

 27 27  0  0  0  0  0  0  0  0999 V2000
    5.4290    0.2131   -0.3367 O   0  0  0  0  0  0  0  0  0  0  0  0
    4.1440   -0.3429   -0.3432 N   0  0  0  0  0  0  0  0  0  0  0  0
    3.2772    0.5972   -0.1449 C   0  0  0  0  0  0  0  0  0  0  0  0
    1.8137    0.3529   -0.0891 C   0  0  0  0  0  0  0  0  0  0  0  0
    1.0043    1.3990    0.1441 C   0  0  0  0  0  0  0  0  0  0  0  0
   -0.4905    1.2654    0.2494 C   0  0  0  0  0  0  0  0  0  0  0  0
   -0.9831   -0.1957    0.3714 C   0  0  0  0  0  0  0  0  0  0  0  0
   -0.1934   -1.0888   -0.6061 C   0  0  0  0  0  0  0  0  0  0  0  0
    1.3107   -1.0434   -0.3120 C   0  0  0  0  0  0  0  0  0  0  0  0
   -2.5045   -0.2713    0.2408 C   0  0  0  0  0  0  0  0  0  0  0  0
   -3.1570   -0.7865   -0.8157 C   0  0  0  0  0  0  0  0  0  0  0  0
   -3.2830    0.2580    1.4198 C   0  0  0  0  0  0  0  0  0  0  0  0
    5.9934   -0.5670   -0.4926 H   0  0  0  0  0  0  0  0  0  0  0  0
    3.6010    1.6444   -0.0008 H   0  0  0  0  0  0  0  0  0  0  0  0
    1.4055    2.4012    0.2750 H   0  0  0  0  0  0  0  0  0  0  0  0
   -0.9378    1.7477   -0.6292 H   0  0  0  0  0  0  0  0  0  0  0  0
   -0.8209    1.8340    1.1273 H   0  0  0  0  0  0  0  0  0  0  0  0
   -0.7369   -0.5548    1.3821 H   0  0  0  0  0  0  0  0  0  0  0  0
   -0.3596   -0.7564   -1.6397 H   0  0  0  0  0  0  0  0  0  0  0  0
   -0.5357   -2.1290   -0.5429 H   0  0  0  0  0  0  0  0  0  0  0  0
    1.8372   -1.5124   -1.1516 H   0  0  0  0  0  0  0  0  0  0  0  0
    1.5256   -1.6423    0.5817 H   0  0  0  0  0  0  0  0  0  0  0  0
   -4.2426   -0.8229   -0.8475 H   0  0  0  0  0  0  0  0  0  0  0  0
   -2.6443   -1.1840   -1.6849 H   0  0  0  0  0  0  0  0  0  0  0  0
   -4.3617    0.1064    1.3039 H   0  0  0  0  0  0  0  0  0  0  0  0
   -3.1138    1.3318    1.5443 H   0  0  0  0  0  0  0  0  0  0  0  0
   -2.9768   -0.2537    2.3380 H   0  0  0  0  0  0  0  0  0  0  0  0
  1  2  1  0
  2  3  2  3
  3  4  1  0
  4  5  2  0
  5  6  1  0
  6  7  1  0
  7  8  1  0
  8  9  1  0
  7 10  1  0
 10 11  2  0
 10 12  1  0
  9  4  1  0
  1 13  1  0
  3 14  1  0
  5 15  1  0
  6 16  1  0
  6 17  1  0
  7 18  1  0
  8 19  1  0
  8 20  1  0
  9 21  1  0
  9 22  1  0
 11 23  1  0
 11 24  1  0
 12 25  1  0
 12 26  1  0
 12 27  1  0
M  END
