
     RDKit          3D

 42 43  0  0  0  0  0  0  0  0999 V2000
    2.8947    0.7723    1.7986 Cl  0  0  0  0  0  0  0  0  0  0  0  0
    3.8405    0.0622    0.4619 C   0  0  0  0  0  0  0  0  0  0  0  0
    2.9709   -0.5919   -0.6108 C   0  0  0  0  0  0  0  0  0  0  0  0
    2.1775    0.3889   -1.3138 O   0  0  0  0  0  0  0  0  0  0  0  0
    1.0477   -0.2971   -1.9095 C   0  0  0  0  0  0  0  0  0  0  0  0
    1.0663   -1.7621   -1.3615 C   0  0  0  0  0  0  0  0  0  0  0  0
    1.9710   -1.6336   -0.1368 C   0  0  0  0  0  0  0  0  0  0  0  0
    2.7334   -3.1615    0.3512 Cl  0  0  0  0  0  0  0  0  0  0  0  0
    1.6421   -2.6768   -2.3102 O   0  0  0  0  0  0  0  0  0  0  0  0
    1.2289   -0.2834   -3.4458 C   0  0  0  0  0  0  0  0  0  0  0  0
    1.2265    1.3818   -4.1172 Cl  0  0  0  0  0  0  0  0  0  0  0  0
   -0.1869    0.3795   -1.6438 O   0  0  0  0  0  0  0  0  0  0  0  0
   -0.4363    0.7571   -0.2956 C   0  0  0  0  0  0  0  0  0  0  0  0
   -0.9351   -0.3755    0.4139 O   0  0  0  0  0  0  0  0  0  0  0  0
   -1.2822   -0.0735    1.7789 C   0  0  0  0  0  0  0  0  0  0  0  0
   -1.7553   -1.3866    2.4166 C   0  0  0  0  0  0  0  0  0  0  0  0
   -2.8089   -1.9689    1.6488 O   0  0  0  0  0  0  0  0  0  0  0  0
   -2.3612    1.0155    1.8649 C   0  0  0  0  0  0  0  0  0  0  0  0
   -1.9251    2.2529    1.0744 C   0  0  0  0  0  0  0  0  0  0  0  0
   -1.4897    1.8831   -0.3401 C   0  0  0  0  0  0  0  0  0  0  0  0
   -2.6619    1.4702   -1.0741 O   0  0  0  0  0  0  0  0  0  0  0  0
   -3.0254    3.1778    1.0398 O   0  0  0  0  0  0  0  0  0  0  0  0
   -2.5663    1.3959    3.2286 O   0  0  0  0  0  0  0  0  0  0  0  0
    4.4179    0.8835    0.0265 H   0  0  0  0  0  0  0  0  0  0  0  0
    4.5342   -0.6590    0.9042 H   0  0  0  0  0  0  0  0  0  0  0  0
    3.6482   -1.0262   -1.3587 H   0  0  0  0  0  0  0  0  0  0  0  0
    0.0690   -2.1398   -1.1171 H   0  0  0  0  0  0  0  0  0  0  0  0
    1.3908   -1.2753    0.7143 H   0  0  0  0  0  0  0  0  0  0  0  0
    1.8851   -3.4887   -1.8198 H   0  0  0  0  0  0  0  0  0  0  0  0
    2.1858   -0.7183   -3.7464 H   0  0  0  0  0  0  0  0  0  0  0  0
    0.4104   -0.8105   -3.9410 H   0  0  0  0  0  0  0  0  0  0  0  0
    0.4689    1.1362    0.1864 H   0  0  0  0  0  0  0  0  0  0  0  0
   -0.3801    0.2495    2.3146 H   0  0  0  0  0  0  0  0  0  0  0  0
   -2.1041   -1.2449    3.4421 H   0  0  0  0  0  0  0  0  0  0  0  0
   -0.9365   -2.1112    2.4252 H   0  0  0  0  0  0  0  0  0  0  0  0
   -2.5267   -1.8985    0.7160 H   0  0  0  0  0  0  0  0  0  0  0  0
   -3.3201    0.6508    1.4804 H   0  0  0  0  0  0  0  0  0  0  0  0
   -1.1074    2.7589    1.5995 H   0  0  0  0  0  0  0  0  0  0  0  0
   -1.1022    2.7576   -0.8728 H   0  0  0  0  0  0  0  0  0  0  0  0
   -2.3177    0.9892   -1.8560 H   0  0  0  0  0  0  0  0  0  0  0  0
   -3.4719    3.0111    0.1840 H   0  0  0  0  0  0  0  0  0  0  0  0
   -3.1090    2.2092    3.2005 H   0  0  0  0  0  0  0  0  0  0  0  0
  1  2  1  0
  2  3  1  0
  3  4  1  0
  4  5  1  0
  5  6  1  0
  6  7  1  0
  7  8  1  0
  6  9  1  0
  5 10  1  0
 10 11  1  0
  5 12  1  0
 12 13  1  0
 13 14  1  0
 14 15  1  0
 15 16  1  0
 16 17  1  0
 15 18  1  0
 18 19  1  0
 19 20  1  0
 20 21  1  0
 19 22  1  0
 18 23  1  0
  7  3  1  0
 20 13  1  0
  2 24  1  0
  2 25  1  0
  3 26  1  0
  6 27  1  0
  7 28  1  0
  9 29  1  0
 10 30  1  0
 10 31  1  0
 13 32  1  0
 15 33  1  0
 16 34  1  0
 16 35  1  0
 17 36  1  0
 18 37  1  0
 19 38  1  0
 20 39  1  0
 21 40  1  0
 22 41  1  0
 23 42  1  0
M  END
