
     RDKit          3D

 43 44  0  0  0  0  0  0  0  0999 V2000
   -3.8975    0.2728    2.4725 O   0  0  0  0  0  0  0  0  0  0  0  0
   -4.0812    1.3457    1.5500 C   0  0  0  0  0  0  0  0  0  0  0  0
   -3.3876    1.0310    0.2285 C   0  0  0  0  0  0  0  0  0  0  0  0
   -1.9821    0.7972    0.4789 O   0  0  0  0  0  0  0  0  0  0  0  0
   -1.5754   -0.4053   -0.2059 C   0  0  0  0  0  0  0  0  0  0  0  0
   -2.7122   -0.6864   -1.2221 C   0  0  0  0  0  0  0  0  0  0  0  0
   -3.9340   -0.2106   -0.4640 C   0  0  0  0  0  0  0  0  0  0  0  0
   -5.2985    0.1714   -1.5441 Cl  0  0  0  0  0  0  0  0  0  0  0  0
   -2.7946   -2.0510   -1.6248 O   0  0  0  0  0  0  0  0  0  0  0  0
   -1.4230   -1.5952    0.7805 C   0  0  0  0  0  0  0  0  0  0  0  0
   -0.6757   -1.1424    2.3495 Cl  0  0  0  0  0  0  0  0  0  0  0  0
   -0.4214   -0.1936   -1.0226 O   0  0  0  0  0  0  0  0  0  0  0  0
    0.7461    0.2664   -0.3465 C   0  0  0  0  0  0  0  0  0  0  0  0
    1.4910   -0.8703    0.0894 O   0  0  0  0  0  0  0  0  0  0  0  0
    2.7321   -0.5229    0.7348 C   0  0  0  0  0  0  0  0  0  0  0  0
    3.3802   -1.8302    1.2003 C   0  0  0  0  0  0  0  0  0  0  0  0
    2.5999   -2.4047    2.2506 O   0  0  0  0  0  0  0  0  0  0  0  0
    3.6520    0.2579   -0.2135 C   0  0  0  0  0  0  0  0  0  0  0  0
    2.9159    1.4867   -0.7469 C   0  0  0  0  0  0  0  0  0  0  0  0
    1.5652    1.1006   -1.3554 C   0  0  0  0  0  0  0  0  0  0  0  0
    0.8755    2.3100   -1.7183 O   0  0  0  0  0  0  0  0  0  0  0  0
    3.7138    2.1263   -1.7606 O   0  0  0  0  0  0  0  0  0  0  0  0
    4.0663   -0.5593   -1.3152 O   0  0  0  0  0  0  0  0  0  0  0  0
   -2.9477    0.2666    2.7038 H   0  0  0  0  0  0  0  0  0  0  0  0
   -5.1549    1.4992    1.4082 H   0  0  0  0  0  0  0  0  0  0  0  0
   -3.6570    2.2464    2.0059 H   0  0  0  0  0  0  0  0  0  0  0  0
   -3.4426    1.9092   -0.4266 H   0  0  0  0  0  0  0  0  0  0  0  0
   -2.5683   -0.0822   -2.1289 H   0  0  0  0  0  0  0  0  0  0  0  0
   -4.2888   -0.9760    0.2331 H   0  0  0  0  0  0  0  0  0  0  0  0
   -2.0394   -2.2084   -2.2235 H   0  0  0  0  0  0  0  0  0  0  0  0
   -2.3964   -2.0064    1.0599 H   0  0  0  0  0  0  0  0  0  0  0  0
   -0.8184   -2.3975    0.3468 H   0  0  0  0  0  0  0  0  0  0  0  0
    0.4741    0.8983    0.5077 H   0  0  0  0  0  0  0  0  0  0  0  0
    2.4868    0.0880    1.6134 H   0  0  0  0  0  0  0  0  0  0  0  0
    4.3863   -1.6570    1.5933 H   0  0  0  0  0  0  0  0  0  0  0  0
    3.4325   -2.5667    0.3921 H   0  0  0  0  0  0  0  0  0  0  0  0
    1.6776   -2.4122    1.9293 H   0  0  0  0  0  0  0  0  0  0  0  0
    4.5678    0.5666    0.3028 H   0  0  0  0  0  0  0  0  0  0  0  0
    2.7603    2.2222    0.0522 H   0  0  0  0  0  0  0  0  0  0  0  0
    1.7079    0.5346   -2.2844 H   0  0  0  0  0  0  0  0  0  0  0  0
    1.4773    2.7726   -2.3330 H   0  0  0  0  0  0  0  0  0  0  0  0
    4.4633    2.5594   -1.3114 H   0  0  0  0  0  0  0  0  0  0  0  0
    4.3249    0.0492   -2.0360 H   0  0  0  0  0  0  0  0  0  0  0  0
  1  2  1  0
  2  3  1  0
  3  4  1  0
  4  5  1  0
  5  6  1  0
  6  7  1  0
  7  8  1  0
  6  9  1  0
  5 10  1  0
 10 11  1  0
  5 12  1  0
 12 13  1  0
 13 14  1  0
 14 15  1  0
 15 16  1  0
 16 17  1  0
 15 18  1  0
 18 19  1  0
 19 20  1  0
 20 21  1  0
 19 22  1  0
 18 23  1  0
  7  3  1  0
 20 13  1  0
  1 24  1  0
  2 25  1  0
  2 26  1  0
  3 27  1  0
  6 28  1  0
  7 29  1  0
  9 30  1  0
 10 31  1  0
 10 32  1  0
 13 33  1  0
 15 34  1  0
 16 35  1  0
 16 36  1  0
 17 37  1  0
 18 38  1  0
 19 39  1  0
 20 40  1  0
 21 41  1  0
 22 42  1  0
 23 43  1  0
M  END
