
     RDKit          3D

 41 42  0  0  0  0  0  0  0  0999 V2000
   -3.5171   -1.3132    3.1648 Cl  0  0  0  0  0  0  0  0  0  0  0  0
   -4.0729   -0.5844    1.6344 C   0  0  0  0  0  0  0  0  0  0  0  0
   -2.9188    0.0748    0.8788 C   0  0  0  0  0  0  0  0  0  0  0  0
   -2.0001   -0.9497    0.4194 O   0  0  0  0  0  0  0  0  0  0  0  0
   -1.5604   -0.6048   -0.9028 C   0  0  0  0  0  0  0  0  0  0  0  0
   -2.8336    0.0179   -1.5149 C   0  0  0  0  0  0  0  0  0  0  0  0
   -3.4197    0.8166   -0.3631 C   0  0  0  0  0  0  0  0  0  0  0  0
   -2.8409    2.6862   -0.3444 Br  0  0  0  0  0  0  0  0  0  0  0  0
   -2.6214    0.7444   -2.7157 O   0  0  0  0  0  0  0  0  0  0  0  0
   -1.1454   -1.8310   -1.7456 C   0  0  0  0  0  0  0  0  0  0  0  0
   -0.1790   -3.0422   -0.8474 Cl  0  0  0  0  0  0  0  0  0  0  0  0
   -0.5792    0.4352   -0.8851 O   0  0  0  0  0  0  0  0  0  0  0  0
    0.6341    0.1381   -0.1932 C   0  0  0  0  0  0  0  0  0  0  0  0
    1.5786   -0.3337   -1.1542 O   0  0  0  0  0  0  0  0  0  0  0  0
    2.9213   -0.5135   -0.6754 C   0  0  0  0  0  0  0  0  0  0  0  0
    3.0266   -1.7274    0.2653 C   0  0  0  0  0  0  0  0  0  0  0  0
    4.3518   -1.8661    0.7583 O   0  0  0  0  0  0  0  0  0  0  0  0
    3.4844    0.7755   -0.0573 C   0  0  0  0  0  0  0  0  0  0  0  0
    2.5291    1.3159    1.0056 C   0  0  0  0  0  0  0  0  0  0  0  0
    1.0991    1.4494    0.4769 C   0  0  0  0  0  0  0  0  0  0  0  0
    0.2405    1.7924    1.5804 O   0  0  0  0  0  0  0  0  0  0  0  0
    2.9590    2.5855    1.5276 O   0  0  0  0  0  0  0  0  0  0  0  0
    3.7200    2.0229   -1.3486 Cl  0  0  0  0  0  0  0  0  0  0  0  0
   -4.8464    0.1457    1.8898 H   0  0  0  0  0  0  0  0  0  0  0  0
   -4.5199   -1.3914    1.0459 H   0  0  0  0  0  0  0  0  0  0  0  0
   -2.3637    0.7296    1.5598 H   0  0  0  0  0  0  0  0  0  0  0  0
   -3.5527   -0.7801   -1.7427 H   0  0  0  0  0  0  0  0  0  0  0  0
   -4.5098    0.8892   -0.4279 H   0  0  0  0  0  0  0  0  0  0  0  0
   -1.9241    1.4020   -2.5121 H   0  0  0  0  0  0  0  0  0  0  0  0
   -0.5692   -1.5318   -2.6263 H   0  0  0  0  0  0  0  0  0  0  0  0
   -2.0261   -2.3880   -2.0783 H   0  0  0  0  0  0  0  0  0  0  0  0
    0.4559   -0.6146    0.5817 H   0  0  0  0  0  0  0  0  0  0  0  0
    3.5308   -0.7542   -1.5562 H   0  0  0  0  0  0  0  0  0  0  0  0
    2.3500   -1.6479    1.1205 H   0  0  0  0  0  0  0  0  0  0  0  0
    2.7596   -2.6388   -0.2792 H   0  0  0  0  0  0  0  0  0  0  0  0
    4.3905   -2.7136    1.2385 H   0  0  0  0  0  0  0  0  0  0  0  0
    4.4825    0.6299    0.3661 H   0  0  0  0  0  0  0  0  0  0  0  0
    2.5250    0.6409    1.8698 H   0  0  0  0  0  0  0  0  0  0  0  0
    1.0242    2.2840   -0.2303 H   0  0  0  0  0  0  0  0  0  0  0  0
    0.6946    2.5198    2.0507 H   0  0  0  0  0  0  0  0  0  0  0  0
    3.2424    3.1299    0.7665 H   0  0  0  0  0  0  0  0  0  0  0  0
  1  2  1  0
  2  3  1  0
  3  4  1  0
  4  5  1  0
  5  6  1  0
  6  7  1  0
  7  8  1  0
  6  9  1  0
  5 10  1  0
 10 11  1  0
  5 12  1  0
 12 13  1  0
 13 14  1  0
 14 15  1  0
 15 16  1  0
 16 17  1  0
 15 18  1  0
 18 19  1  0
 19 20  1  0
 20 21  1  0
 19 22  1  0
 18 23  1  0
  7  3  1  0
 20 13  1  0
  2 24  1  0
  2 25  1  0
  3 26  1  0
  6 27  1  0
  7 28  1  0
  9 29  1  0
 10 30  1  0
 10 31  1  0
 13 32  1  0
 15 33  1  0
 16 34  1  0
 16 35  1  0
 17 36  1  0
 18 37  1  0
 19 38  1  0
 20 39  1  0
 21 40  1  0
 22 41  1  0
M  END
