
     RDKit          3D

 41 42  0  0  0  0  0  0  0  0999 V2000
   -4.4940   -0.1271   -1.8349 Cl  0  0  0  0  0  0  0  0  0  0  0  0
   -3.2188    1.0508   -2.2467 C   0  0  0  0  0  0  0  0  0  0  0  0
   -2.2193    1.2860   -1.1185 C   0  0  0  0  0  0  0  0  0  0  0  0
   -1.6163    0.0507   -0.6830 O   0  0  0  0  0  0  0  0  0  0  0  0
   -1.4115    0.1129    0.7450 C   0  0  0  0  0  0  0  0  0  0  0  0
   -1.7289    1.5775    1.1548 C   0  0  0  0  0  0  0  0  0  0  0  0
   -2.7475    1.9932    0.1213 C   0  0  0  0  0  0  0  0  0  0  0  0
   -3.9607    1.5207    0.4967 F   0  0  0  0  0  0  0  0  0  0  0  0
   -0.5706    2.4237    1.0323 O   0  0  0  0  0  0  0  0  0  0  0  0
   -2.3713   -0.8985    1.4144 C   0  0  0  0  0  0  0  0  0  0  0  0
   -2.1173   -1.0213    3.1764 Cl  0  0  0  0  0  0  0  0  0  0  0  0
   -0.0267   -0.1113    1.0893 O   0  0  0  0  0  0  0  0  0  0  0  0
    0.5436   -1.3120    0.5666 C   0  0  0  0  0  0  0  0  0  0  0  0
    0.7777   -1.2129   -0.8404 O   0  0  0  0  0  0  0  0  0  0  0  0
    1.6942   -0.1592   -1.1972 C   0  0  0  0  0  0  0  0  0  0  0  0
    1.6963   -0.1140   -2.7289 C   0  0  0  0  0  0  0  0  0  0  0  0
    0.3567    0.1186   -3.1849 O   0  0  0  0  0  0  0  0  0  0  0  0
    3.0734   -0.4194   -0.5861 C   0  0  0  0  0  0  0  0  0  0  0  0
    2.9472   -0.5798    0.9376 C   0  0  0  0  0  0  0  0  0  0  0  0
    1.8659   -1.6077    1.3023 C   0  0  0  0  0  0  0  0  0  0  0  0
    2.3475   -2.9216    0.9766 O   0  0  0  0  0  0  0  0  0  0  0  0
    4.1903   -1.0524    1.4902 O   0  0  0  0  0  0  0  0  0  0  0  0
    4.2042    0.9299   -0.9490 Cl  0  0  0  0  0  0  0  0  0  0  0  0
   -2.7032    0.6362   -3.1179 H   0  0  0  0  0  0  0  0  0  0  0  0
   -3.7046    1.9849   -2.5418 H   0  0  0  0  0  0  0  0  0  0  0  0
   -1.3954    1.8847   -1.5278 H   0  0  0  0  0  0  0  0  0  0  0  0
   -2.0949    1.6719    2.1798 H   0  0  0  0  0  0  0  0  0  0  0  0
   -2.8284    3.0750   -0.0255 H   0  0  0  0  0  0  0  0  0  0  0  0
    0.1683    1.8891    1.3809 H   0  0  0  0  0  0  0  0  0  0  0  0
   -2.2375   -1.9017    0.9990 H   0  0  0  0  0  0  0  0  0  0  0  0
   -3.4189   -0.6389    1.2432 H   0  0  0  0  0  0  0  0  0  0  0  0
   -0.1250   -2.1631    0.7208 H   0  0  0  0  0  0  0  0  0  0  0  0
    1.2791    0.7900   -0.8338 H   0  0  0  0  0  0  0  0  0  0  0  0
    2.0240   -1.0689   -3.1534 H   0  0  0  0  0  0  0  0  0  0  0  0
    2.3256    0.6878   -3.1233 H   0  0  0  0  0  0  0  0  0  0  0  0
   -0.1962   -0.5010   -2.6618 H   0  0  0  0  0  0  0  0  0  0  0  0
    3.5233   -1.3228   -1.0135 H   0  0  0  0  0  0  0  0  0  0  0  0
    2.7034    0.3853    1.4008 H   0  0  0  0  0  0  0  0  0  0  0  0
    1.7103   -1.5911    2.3866 H   0  0  0  0  0  0  0  0  0  0  0  0
    3.2963   -2.9188    1.2199 H   0  0  0  0  0  0  0  0  0  0  0  0
    4.4595   -0.4253    2.1888 H   0  0  0  0  0  0  0  0  0  0  0  0
  1  2  1  0
  2  3  1  0
  3  4  1  0
  4  5  1  0
  5  6  1  0
  6  7  1  0
  7  8  1  0
  6  9  1  0
  5 10  1  0
 10 11  1  0
  5 12  1  0
 12 13  1  0
 13 14  1  0
 14 15  1  0
 15 16  1  0
 16 17  1  0
 15 18  1  0
 18 19  1  0
 19 20  1  0
 20 21  1  0
 19 22  1  0
 18 23  1  0
  7  3  1  0
 20 13  1  0
  2 24  1  0
  2 25  1  0
  3 26  1  0
  6 27  1  0
  7 28  1  0
  9 29  1  0
 10 30  1  0
 10 31  1  0
 13 32  1  0
 15 33  1  0
 16 34  1  0
 16 35  1  0
 17 36  1  0
 18 37  1  0
 19 38  1  0
 20 39  1  0
 21 40  1  0
 22 41  1  0
M  END
