
     RDKit          3D

 41 42  0  0  0  0  0  0  0  0999 V2000
   -4.0408    0.5639    3.9889 Br  0  0  0  0  0  0  0  0  0  0  0  0
   -3.4476    1.1620    2.2398 C   0  0  0  0  0  0  0  0  0  0  0  0
   -2.5522    0.1376    1.5542 C   0  0  0  0  0  0  0  0  0  0  0  0
   -1.7649    0.8453    0.5697 O   0  0  0  0  0  0  0  0  0  0  0  0
   -1.5236   -0.0145   -0.5612 C   0  0  0  0  0  0  0  0  0  0  0  0
   -2.2946   -1.3320   -0.2854 C   0  0  0  0  0  0  0  0  0  0  0  0
   -3.2947   -0.9391    0.7823 C   0  0  0  0  0  0  0  0  0  0  0  0
   -3.7296   -2.4937    1.8711 Br  0  0  0  0  0  0  0  0  0  0  0  0
   -2.9195   -1.9106   -1.4281 O   0  0  0  0  0  0  0  0  0  0  0  0
   -1.9004    0.6916   -1.8759 C   0  0  0  0  0  0  0  0  0  0  0  0
   -3.7407    1.3449   -1.9206 Br  0  0  0  0  0  0  0  0  0  0  0  0
   -0.1347   -0.3971   -0.5915 O   0  0  0  0  0  0  0  0  0  0  0  0
    0.7963    0.6790   -0.4903 C   0  0  0  0  0  0  0  0  0  0  0  0
    1.5104    0.5859    0.7476 O   0  0  0  0  0  0  0  0  0  0  0  0
    2.2373   -0.6534    0.9010 C   0  0  0  0  0  0  0  0  0  0  0  0
    2.9239   -0.5596    2.2719 C   0  0  0  0  0  0  0  0  0  0  0  0
    3.7938    0.5711    2.3114 O   0  0  0  0  0  0  0  0  0  0  0  0
    3.2374   -0.8594   -0.2472 C   0  0  0  0  0  0  0  0  0  0  0  0
    2.5796   -0.6763   -1.6172 C   0  0  0  0  0  0  0  0  0  0  0  0
    1.7951    0.6364   -1.6564 C   0  0  0  0  0  0  0  0  0  0  0  0
    1.1387    0.7655   -2.9245 O   0  0  0  0  0  0  0  0  0  0  0  0
    3.5640   -0.6217   -2.6662 O   0  0  0  0  0  0  0  0  0  0  0  0
    3.9749   -2.6873   -0.1842 Br  0  0  0  0  0  0  0  0  0  0  0  0
   -4.3412    1.3948    1.6533 H   0  0  0  0  0  0  0  0  0  0  0  0
   -2.9111    2.1003    2.4136 H   0  0  0  0  0  0  0  0  0  0  0  0
   -1.8361   -0.2928    2.2659 H   0  0  0  0  0  0  0  0  0  0  0  0
   -1.5903   -2.0856    0.0924 H   0  0  0  0  0  0  0  0  0  0  0  0
   -4.2424   -0.5995    0.3554 H   0  0  0  0  0  0  0  0  0  0  0  0
   -3.3633   -2.7282   -1.1359 H   0  0  0  0  0  0  0  0  0  0  0  0
   -1.3075    1.5973   -2.0294 H   0  0  0  0  0  0  0  0  0  0  0  0
   -1.7557    0.0468   -2.7477 H   0  0  0  0  0  0  0  0  0  0  0  0
    0.2934    1.6516   -0.4995 H   0  0  0  0  0  0  0  0  0  0  0  0
    1.5142   -1.4779    0.9426 H   0  0  0  0  0  0  0  0  0  0  0  0
    3.5063   -1.4534    2.5088 H   0  0  0  0  0  0  0  0  0  0  0  0
    2.1778   -0.4206    3.0620 H   0  0  0  0  0  0  0  0  0  0  0  0
    3.2261    1.3443    2.1272 H   0  0  0  0  0  0  0  0  0  0  0  0
    4.1066   -0.1983   -0.1610 H   0  0  0  0  0  0  0  0  0  0  0  0
    1.9146   -1.5128   -1.8667 H   0  0  0  0  0  0  0  0  0  0  0  0
    2.4941    1.4781   -1.5730 H   0  0  0  0  0  0  0  0  0  0  0  0
    1.8241    0.5388   -3.5860 H   0  0  0  0  0  0  0  0  0  0  0  0
    4.0822   -1.4477   -2.6111 H   0  0  0  0  0  0  0  0  0  0  0  0
  1  2  1  0
  2  3  1  0
  3  4  1  0
  4  5  1  0
  5  6  1  0
  6  7  1  0
  7  8  1  0
  6  9  1  0
  5 10  1  0
 10 11  1  0
  5 12  1  0
 12 13  1  0
 13 14  1  0
 14 15  1  0
 15 16  1  0
 16 17  1  0
 15 18  1  0
 18 19  1  0
 19 20  1  0
 20 21  1  0
 19 22  1  0
 18 23  1  0
  7  3  1  0
 20 13  1  0
  2 24  1  0
  2 25  1  0
  3 26  1  0
  6 27  1  0
  7 28  1  0
  9 29  1  0
 10 30  1  0
 10 31  1  0
 13 32  1  0
 15 33  1  0
 16 34  1  0
 16 35  1  0
 17 36  1  0
 18 37  1  0
 19 38  1  0
 20 39  1  0
 21 40  1  0
 22 41  1  0
M  END
