
     RDKit          3D

 41 42  0  0  0  0  0  0  0  0999 V2000
   -4.4852    0.2530    3.6340 Cl  0  0  0  0  0  0  0  0  0  0  0  0
   -3.5544    0.9817    2.3126 C   0  0  0  0  0  0  0  0  0  0  0  0
   -2.6243   -0.0090    1.6161 C   0  0  0  0  0  0  0  0  0  0  0  0
   -1.7728    0.7370    0.7148 O   0  0  0  0  0  0  0  0  0  0  0  0
   -1.5159   -0.0528   -0.4661 C   0  0  0  0  0  0  0  0  0  0  0  0
   -2.2531   -1.3992   -0.2552 C   0  0  0  0  0  0  0  0  0  0  0  0
   -3.3241   -1.0578    0.7630 C   0  0  0  0  0  0  0  0  0  0  0  0
   -3.8097   -2.5191    1.6604 Cl  0  0  0  0  0  0  0  0  0  0  0  0
   -2.7813   -1.9831   -1.4423 O   0  0  0  0  0  0  0  0  0  0  0  0
   -1.9465    0.7178   -1.7374 C   0  0  0  0  0  0  0  0  0  0  0  0
   -3.6660    1.2074   -1.7482 Cl  0  0  0  0  0  0  0  0  0  0  0  0
   -0.1183   -0.3931   -0.5325 O   0  0  0  0  0  0  0  0  0  0  0  0
    0.7842    0.7037   -0.4017 C   0  0  0  0  0  0  0  0  0  0  0  0
    1.5524    0.5535    0.7986 O   0  0  0  0  0  0  0  0  0  0  0  0
    2.3333   -0.6625    0.8295 C   0  0  0  0  0  0  0  0  0  0  0  0
    3.0571   -0.6667    2.1823 C   0  0  0  0  0  0  0  0  0  0  0  0
    3.8758    0.4957    2.3062 O   0  0  0  0  0  0  0  0  0  0  0  0
    3.3074   -0.7283   -0.3603 C   0  0  0  0  0  0  0  0  0  0  0  0
    2.5694   -0.5085   -1.6855 C   0  0  0  0  0  0  0  0  0  0  0  0
    1.7295    0.7685   -1.6123 C   0  0  0  0  0  0  0  0  0  0  0  0
    1.0090    0.9411   -2.8396 O   0  0  0  0  0  0  0  0  0  0  0  0
    3.4899   -0.3616   -2.7822 O   0  0  0  0  0  0  0  0  0  0  0  0
    4.1546   -2.3119   -0.4302 Cl  0  0  0  0  0  0  0  0  0  0  0  0
   -4.2583    1.4262    1.6010 H   0  0  0  0  0  0  0  0  0  0  0  0
   -2.9741    1.8090    2.7351 H   0  0  0  0  0  0  0  0  0  0  0  0
   -1.9547   -0.4756    2.3502 H   0  0  0  0  0  0  0  0  0  0  0  0
   -1.5461   -2.1290    0.1633 H   0  0  0  0  0  0  0  0  0  0  0  0
   -4.2274   -0.6746    0.2808 H   0  0  0  0  0  0  0  0  0  0  0  0
   -3.2450   -2.8011   -1.1819 H   0  0  0  0  0  0  0  0  0  0  0  0
   -1.3879    1.6528   -1.8296 H   0  0  0  0  0  0  0  0  0  0  0  0
   -1.7490    0.1331   -2.6416 H   0  0  0  0  0  0  0  0  0  0  0  0
    0.2518    1.6573   -0.3243 H   0  0  0  0  0  0  0  0  0  0  0  0
    1.6468   -1.5186    0.8106 H   0  0  0  0  0  0  0  0  0  0  0  0
    3.6861   -1.5510    2.3142 H   0  0  0  0  0  0  0  0  0  0  0  0
    2.3314   -0.6394    3.0024 H   0  0  0  0  0  0  0  0  0  0  0  0
    3.2677    1.2557    2.2264 H   0  0  0  0  0  0  0  0  0  0  0  0
    4.0919    0.0312   -0.2655 H   0  0  0  0  0  0  0  0  0  0  0  0
    1.9271   -1.3627   -1.9345 H   0  0  0  0  0  0  0  0  0  0  0  0
    2.3967    1.6338   -1.5112 H   0  0  0  0  0  0  0  0  0  0  0  0
    1.6687    0.7738   -3.5443 H   0  0  0  0  0  0  0  0  0  0  0  0
    4.0631   -1.1532   -2.7750 H   0  0  0  0  0  0  0  0  0  0  0  0
  1  2  1  0
  2  3  1  0
  3  4  1  0
  4  5  1  0
  5  6  1  0
  6  7  1  0
  7  8  1  0
  6  9  1  0
  5 10  1  0
 10 11  1  0
  5 12  1  0
 12 13  1  0
 13 14  1  0
 14 15  1  0
 15 16  1  0
 16 17  1  0
 15 18  1  0
 18 19  1  0
 19 20  1  0
 20 21  1  0
 19 22  1  0
 18 23  1  0
  7  3  1  0
 20 13  1  0
  2 24  1  0
  2 25  1  0
  3 26  1  0
  6 27  1  0
  7 28  1  0
  9 29  1  0
 10 30  1  0
 10 31  1  0
 13 32  1  0
 15 33  1  0
 16 34  1  0
 16 35  1  0
 17 36  1  0
 18 37  1  0
 19 38  1  0
 20 39  1  0
 21 40  1  0
 22 41  1  0
M  END
