
     RDKit          3D

 48 51  0  0  0  0  0  0  0  0999 V2000
    5.4616   -1.0593    2.0444 C   0  0  0  0  0  0  0  0  0  0  0  0
    4.5988   -1.4299    1.0893 C   0  0  0  0  0  0  0  0  0  0  0  0
    3.4206   -0.5946    0.6478 C   0  0  0  0  0  0  0  0  0  0  0  0
    3.4677   -0.2885   -0.8739 C   0  0  0  0  0  0  0  0  0  0  0  0
    2.1278   -0.4364   -1.5097 N   0  0  0  0  0  0  0  0  0  0  0  0
    1.7692   -1.8749   -1.4545 C   0  0  0  0  0  0  0  0  0  0  0  0
    1.8136   -2.4265   -0.0211 C   0  0  0  0  0  0  0  0  0  0  0  0
    2.0620   -1.2700    0.9640 C   0  0  0  0  0  0  0  0  0  0  0  0
    0.9487   -0.2357    0.7003 C   0  0  0  0  0  0  0  0  0  0  0  0
    1.1446    0.3738   -0.7050 C   0  0  0  0  0  0  0  0  0  0  0  0
   -0.1859    0.5927   -1.4927 C   0  0  0  0  0  0  0  0  0  0  0  0
   -1.0682    1.6708   -0.8878 C   0  0  0  0  0  0  0  0  0  0  0  0
   -0.7053    3.0121   -1.0821 C   0  0  0  0  0  0  0  0  0  0  0  0
   -1.4718    4.0060   -0.5117 C   0  0  0  0  0  0  0  0  0  0  0  0
   -2.5608    3.7674    0.2417 N   0  0  0  0  0  0  0  0  0  0  0  0
   -2.9303    2.4921    0.4298 C   0  0  0  0  0  0  0  0  0  0  0  0
   -2.2279    1.3888   -0.1110 C   0  0  0  0  0  0  0  0  0  0  0  0
   -2.7296    0.0897    0.1592 C   0  0  0  0  0  0  0  0  0  0  0  0
   -3.8710   -0.1213    0.9384 C   0  0  0  0  0  0  0  0  0  0  0  0
   -4.2157   -1.4330    1.1074 O   0  0  0  0  0  0  0  0  0  0  0  0
   -5.3930   -1.6957    1.8616 C   0  0  0  0  0  0  0  0  0  0  0  0
   -4.5380    0.9752    1.4621 C   0  0  0  0  0  0  0  0  0  0  0  0
   -4.0609    2.2628    1.2001 C   0  0  0  0  0  0  0  0  0  0  0  0
    0.1574    0.9848   -2.8350 O   0  0  0  0  0  0  0  0  0  0  0  0
    6.2937   -1.7006    2.3201 H   0  0  0  0  0  0  0  0  0  0  0  0
    5.3618   -0.1168    2.5740 H   0  0  0  0  0  0  0  0  0  0  0  0
    4.7536   -2.3869    0.5946 H   0  0  0  0  0  0  0  0  0  0  0  0
    3.4494    0.3636    1.1866 H   0  0  0  0  0  0  0  0  0  0  0  0
    4.1902   -0.9266   -1.3999 H   0  0  0  0  0  0  0  0  0  0  0  0
    3.8262    0.7378   -1.0274 H   0  0  0  0  0  0  0  0  0  0  0  0
    2.4559   -2.4471   -2.0911 H   0  0  0  0  0  0  0  0  0  0  0  0
    0.7766   -2.0362   -1.8904 H   0  0  0  0  0  0  0  0  0  0  0  0
    0.8624   -2.9202    0.2124 H   0  0  0  0  0  0  0  0  0  0  0  0
    2.5951   -3.1889    0.0679 H   0  0  0  0  0  0  0  0  0  0  0  0
    2.0167   -1.6258    1.9992 H   0  0  0  0  0  0  0  0  0  0  0  0
    0.9881    0.5589    1.4551 H   0  0  0  0  0  0  0  0  0  0  0  0
   -0.0243   -0.7275    0.7975 H   0  0  0  0  0  0  0  0  0  0  0  0
    1.6005    1.3679   -0.5862 H   0  0  0  0  0  0  0  0  0  0  0  0
   -0.7286   -0.3482   -1.6036 H   0  0  0  0  0  0  0  0  0  0  0  0
    0.1600    3.2770   -1.6828 H   0  0  0  0  0  0  0  0  0  0  0  0
   -1.2220    5.0539   -0.6491 H   0  0  0  0  0  0  0  0  0  0  0  0
   -2.2393   -0.7932   -0.2401 H   0  0  0  0  0  0  0  0  0  0  0  0
   -5.5375   -2.7800    1.8886 H   0  0  0  0  0  0  0  0  0  0  0  0
   -5.2849   -1.3482    2.8943 H   0  0  0  0  0  0  0  0  0  0  0  0
   -6.2744   -1.2538    1.3852 H   0  0  0  0  0  0  0  0  0  0  0  0
   -5.4279    0.8752    2.0736 H   0  0  0  0  0  0  0  0  0  0  0  0
   -4.5921    3.1188    1.6116 H   0  0  0  0  0  0  0  0  0  0  0  0
    0.9873    0.4968   -3.0193 H   0  0  0  0  0  0  0  0  0  0  0  0
  1  2  2  0
  2  3  1  0
  3  4  1  0
  4  5  1  0
  5  6  1  0
  6  7  1  0
  7  8  1  0
  8  9  1  0
  9 10  1  0
 10 11  1  0
 11 12  1  0
 12 13  2  0
 13 14  1  0
 14 15  2  0
 15 16  1  0
 16 17  2  0
 17 18  1  0
 18 19  2  0
 19 20  1  0
 20 21  1  0
 19 22  1  0
 22 23  2  0
 11 24  1  0
  8  3  1  0
 17 12  1  0
 10  5  1  0
 23 16  1  0
  1 25  1  0
  1 26  1  0
  2 27  1  0
  3 28  1  0
  4 29  1  0
  4 30  1  0
  6 31  1  0
  6 32  1  0
  7 33  1  0
  7 34  1  0
  8 35  1  0
  9 36  1  0
  9 37  1  0
 10 38  1  0
 11 39  1  0
 13 40  1  0
 14 41  1  0
 18 42  1  0
 21 43  1  0
 21 44  1  0
 21 45  1  0
 22 46  1  0
 23 47  1  0
 24 48  1  0
M  END
