
     RDKit          3D

 42 43  0  0  0  0  0  0  0  0999 V2000
    5.1191    0.4122   -1.9419 O   0  0  0  0  0  0  0  0  0  0  0  0
    4.6952    0.2398   -0.5881 C   0  0  0  0  0  0  0  0  0  0  0  0
    3.2223   -0.1667   -0.5630 C   0  0  0  0  0  0  0  0  0  0  0  0
    2.4864    0.8991   -1.2449 O   0  0  0  0  0  0  0  0  0  0  0  0
    1.2347    1.0680   -0.5254 C   0  0  0  0  0  0  0  0  0  0  0  0
    1.7232    0.9165    0.9275 C   0  0  0  0  0  0  0  0  0  0  0  0
    2.5624   -0.3453    0.8122 C   0  0  0  0  0  0  0  0  0  0  0  0
    3.6572   -0.5100    2.2052 Cl  0  0  0  0  0  0  0  0  0  0  0  0
    0.7107    0.8783    1.9156 O   0  0  0  0  0  0  0  0  0  0  0  0
    0.6827    2.4810   -0.7827 C   0  0  0  0  0  0  0  0  0  0  0  0
    0.2038    2.7153   -2.4938 Cl  0  0  0  0  0  0  0  0  0  0  0  0
    0.3726    0.0343   -1.0084 O   0  0  0  0  0  0  0  0  0  0  0  0
   -0.8782   -0.1640   -0.3420 C   0  0  0  0  0  0  0  0  0  0  0  0
   -0.7079   -1.1668    0.6536 O   0  0  0  0  0  0  0  0  0  0  0  0
   -1.9135   -1.5674    1.3259 C   0  0  0  0  0  0  0  0  0  0  0  0
   -2.4217   -0.5067    2.3288 C   0  0  0  0  0  0  0  0  0  0  0  0
   -2.8588    0.7155    1.7542 O   0  0  0  0  0  0  0  0  0  0  0  0
   -2.9849   -2.0717    0.3428 C   0  0  0  0  0  0  0  0  0  0  0  0
   -3.1806   -1.1359   -0.8479 C   0  0  0  0  0  0  0  0  0  0  0  0
   -1.8534   -0.6533   -1.4366 C   0  0  0  0  0  0  0  0  0  0  0  0
   -2.1482    0.3964   -2.3763 O   0  0  0  0  0  0  0  0  0  0  0  0
   -3.9745    0.0004   -0.4539 O   0  0  0  0  0  0  0  0  0  0  0  0
   -2.5076   -3.7014   -0.2683 Cl  0  0  0  0  0  0  0  0  0  0  0  0
    4.4055    0.9105   -2.3872 H   0  0  0  0  0  0  0  0  0  0  0  0
    4.8528    1.1958   -0.0786 H   0  0  0  0  0  0  0  0  0  0  0  0
    5.3356   -0.5221   -0.1357 H   0  0  0  0  0  0  0  0  0  0  0  0
    3.0855   -1.0708   -1.1685 H   0  0  0  0  0  0  0  0  0  0  0  0
    2.3759    1.7658    1.1742 H   0  0  0  0  0  0  0  0  0  0  0  0
    1.9323   -1.2401    0.8217 H   0  0  0  0  0  0  0  0  0  0  0  0
    1.1116    0.5348    2.7357 H   0  0  0  0  0  0  0  0  0  0  0  0
   -0.2026    2.6932   -0.1782 H   0  0  0  0  0  0  0  0  0  0  0  0
    1.4414    3.2410   -0.5715 H   0  0  0  0  0  0  0  0  0  0  0  0
   -1.2225    0.7801    0.0814 H   0  0  0  0  0  0  0  0  0  0  0  0
   -1.6119   -2.4146    1.9561 H   0  0  0  0  0  0  0  0  0  0  0  0
   -3.2494   -0.9132    2.9197 H   0  0  0  0  0  0  0  0  0  0  0  0
   -1.6129   -0.2527    3.0215 H   0  0  0  0  0  0  0  0  0  0  0  0
   -3.5808    0.5257    1.1169 H   0  0  0  0  0  0  0  0  0  0  0  0
   -3.9315   -2.2196    0.8739 H   0  0  0  0  0  0  0  0  0  0  0  0
   -3.7699   -1.6269   -1.6321 H   0  0  0  0  0  0  0  0  0  0  0  0
   -1.3872   -1.4712   -1.9998 H   0  0  0  0  0  0  0  0  0  0  0  0
   -1.2834    0.7137   -2.7109 H   0  0  0  0  0  0  0  0  0  0  0  0
   -3.9294    0.6030   -1.2314 H   0  0  0  0  0  0  0  0  0  0  0  0
  1  2  1  0
  2  3  1  0
  3  4  1  0
  4  5  1  0
  5  6  1  0
  6  7  1  0
  7  8  1  0
  6  9  1  0
  5 10  1  0
 10 11  1  0
  5 12  1  0
 12 13  1  0
 13 14  1  0
 14 15  1  0
 15 16  1  0
 16 17  1  0
 15 18  1  0
 18 19  1  0
 19 20  1  0
 20 21  1  0
 19 22  1  0
 18 23  1  0
  7  3  1  0
 20 13  1  0
  1 24  1  0
  2 25  1  0
  2 26  1  0
  3 27  1  0
  6 28  1  0
  7 29  1  0
  9 30  1  0
 10 31  1  0
 10 32  1  0
 13 33  1  0
 15 34  1  0
 16 35  1  0
 16 36  1  0
 17 37  1  0
 18 38  1  0
 19 39  1  0
 20 40  1  0
 21 41  1  0
 22 42  1  0
M  END
