
     RDKit          3D

 42 43  0  0  0  0  0  0  0  0999 V2000
    1.7166    3.2603    2.0735 Br  0  0  0  0  0  0  0  0  0  0  0  0
    2.8695    1.8268    1.4053 C   0  0  0  0  0  0  0  0  0  0  0  0
    2.5590    0.5223    2.1384 C   0  0  0  0  0  0  0  0  0  0  0  0
    1.2189    0.0755    1.8478 O   0  0  0  0  0  0  0  0  0  0  0  0
    1.2447   -0.8503    0.7306 C   0  0  0  0  0  0  0  0  0  0  0  0
    2.7519   -1.1014    0.4293 C   0  0  0  0  0  0  0  0  0  0  0  0
    3.4327   -0.6430    1.7075 C   0  0  0  0  0  0  0  0  0  0  0  0
    4.7929   -0.3024    1.4946 O   0  0  0  0  0  0  0  0  0  0  0  0
    3.1551   -2.4373    0.1422 O   0  0  0  0  0  0  0  0  0  0  0  0
    0.4762   -2.1117    1.1539 C   0  0  0  0  0  0  0  0  0  0  0  0
    0.1946   -3.3756   -0.3086 Br  0  0  0  0  0  0  0  0  0  0  0  0
    0.7002   -0.2022   -0.4293 O   0  0  0  0  0  0  0  0  0  0  0  0
   -0.5766    0.4179   -0.2405 C   0  0  0  0  0  0  0  0  0  0  0  0
   -1.6027   -0.5648   -0.3027 O   0  0  0  0  0  0  0  0  0  0  0  0
   -2.9261   -0.0181   -0.1319 C   0  0  0  0  0  0  0  0  0  0  0  0
   -3.8741   -1.2271   -0.1744 C   0  0  0  0  0  0  0  0  0  0  0  0
   -3.7370   -1.9246   -1.4109 O   0  0  0  0  0  0  0  0  0  0  0  0
   -3.2432    1.0267   -1.2145 C   0  0  0  0  0  0  0  0  0  0  0  0
   -2.1276    2.0749   -1.3251 C   0  0  0  0  0  0  0  0  0  0  0  0
   -0.7531    1.4111   -1.4018 C   0  0  0  0  0  0  0  0  0  0  0  0
   -0.6573    0.7333   -2.6752 O   0  0  0  0  0  0  0  0  0  0  0  0
   -2.3051    2.8770   -2.5017 O   0  0  0  0  0  0  0  0  0  0  0  0
   -4.9171    1.9621   -0.7391 Br  0  0  0  0  0  0  0  0  0  0  0  0
    3.8949    2.1656    1.5719 H   0  0  0  0  0  0  0  0  0  0  0  0
    2.6593    1.7767    0.3340 H   0  0  0  0  0  0  0  0  0  0  0  0
    2.6403    0.6800    3.2200 H   0  0  0  0  0  0  0  0  0  0  0  0
    3.0907   -0.4928   -0.4185 H   0  0  0  0  0  0  0  0  0  0  0  0
    3.3982   -1.4419    2.4591 H   0  0  0  0  0  0  0  0  0  0  0  0
    5.2173   -1.1034    1.1281 H   0  0  0  0  0  0  0  0  0  0  0  0
    2.6352   -2.7418   -0.6270 H   0  0  0  0  0  0  0  0  0  0  0  0
   -0.5191   -1.8707    1.5382 H   0  0  0  0  0  0  0  0  0  0  0  0
    0.9999   -2.6526    1.9486 H   0  0  0  0  0  0  0  0  0  0  0  0
   -0.6240    0.9554    0.7133 H   0  0  0  0  0  0  0  0  0  0  0  0
   -2.9808    0.4283    0.8696 H   0  0  0  0  0  0  0  0  0  0  0  0
   -3.6178   -1.9345    0.6217 H   0  0  0  0  0  0  0  0  0  0  0  0
   -4.9218   -0.9430   -0.0503 H   0  0  0  0  0  0  0  0  0  0  0  0
   -2.7843   -2.1210   -1.5035 H   0  0  0  0  0  0  0  0  0  0  0  0
   -3.4363    0.5693   -2.1907 H   0  0  0  0  0  0  0  0  0  0  0  0
   -2.1495    2.7523   -0.4627 H   0  0  0  0  0  0  0  0  0  0  0  0
    0.0459    2.1608   -1.4010 H   0  0  0  0  0  0  0  0  0  0  0  0
    0.0358    0.0536   -2.5578 H   0  0  0  0  0  0  0  0  0  0  0  0
   -1.9766    2.3302   -3.2455 H   0  0  0  0  0  0  0  0  0  0  0  0
  1  2  1  0
  2  3  1  0
  3  4  1  0
  4  5  1  0
  5  6  1  0
  6  7  1  0
  7  8  1  0
  6  9  1  0
  5 10  1  0
 10 11  1  0
  5 12  1  0
 12 13  1  0
 13 14  1  0
 14 15  1  0
 15 16  1  0
 16 17  1  0
 15 18  1  0
 18 19  1  0
 19 20  1  0
 20 21  1  0
 19 22  1  0
 18 23  1  0
  7  3  1  0
 20 13  1  0
  2 24  1  0
  2 25  1  0
  3 26  1  0
  6 27  1  0
  7 28  1  0
  8 29  1  0
  9 30  1  0
 10 31  1  0
 10 32  1  0
 13 33  1  0
 15 34  1  0
 16 35  1  0
 16 36  1  0
 17 37  1  0
 18 38  1  0
 19 39  1  0
 20 40  1  0
 21 41  1  0
 22 42  1  0
M  END
