
     RDKit          3D

 42 43  0  0  0  0  0  0  0  0999 V2000
   -5.0409   -1.3427    0.0666 F   0  0  0  0  0  0  0  0  0  0  0  0
   -4.9134    0.0124    0.0265 C   0  0  0  0  0  0  0  0  0  0  0  0
   -3.4555    0.3909    0.2260 C   0  0  0  0  0  0  0  0  0  0  0  0
   -2.6708    0.0016   -0.9136 O   0  0  0  0  0  0  0  0  0  0  0  0
   -1.3306   -0.3701   -0.4521 C   0  0  0  0  0  0  0  0  0  0  0  0
   -1.3498   -0.1409    1.0828 C   0  0  0  0  0  0  0  0  0  0  0  0
   -2.8229   -0.2965    1.4180 C   0  0  0  0  0  0  0  0  0  0  0  0
   -3.1317    0.3175    2.6648 O   0  0  0  0  0  0  0  0  0  0  0  0
   -0.5810   -1.0392    1.8852 O   0  0  0  0  0  0  0  0  0  0  0  0
   -1.1479   -1.8383   -0.8804 C   0  0  0  0  0  0  0  0  0  0  0  0
    0.0420   -2.3504   -0.4720 F   0  0  0  0  0  0  0  0  0  0  0  0
   -0.4506    0.5442   -1.1260 O   0  0  0  0  0  0  0  0  0  0  0  0
    0.9446    0.2468   -1.0308 C   0  0  0  0  0  0  0  0  0  0  0  0
    1.3704    0.2466    0.3170 O   0  0  0  0  0  0  0  0  0  0  0  0
    2.7558   -0.1173    0.4449 C   0  0  0  0  0  0  0  0  0  0  0  0
    3.0436   -0.2081    1.9435 C   0  0  0  0  0  0  0  0  0  0  0  0
    2.2472   -1.2437    2.5249 O   0  0  0  0  0  0  0  0  0  0  0  0
    3.6508    0.9128   -0.2486 C   0  0  0  0  0  0  0  0  0  0  0  0
    3.2133    1.1352   -1.6944 C   0  0  0  0  0  0  0  0  0  0  0  0
    1.6990    1.3545   -1.7937 C   0  0  0  0  0  0  0  0  0  0  0  0
    1.3195    1.3633   -3.1805 O   0  0  0  0  0  0  0  0  0  0  0  0
    3.5870    0.0091   -2.5033 O   0  0  0  0  0  0  0  0  0  0  0  0
    3.5544    2.1060    0.4083 F   0  0  0  0  0  0  0  0  0  0  0  0
   -5.2815    0.3482   -0.9502 H   0  0  0  0  0  0  0  0  0  0  0  0
   -5.5444    0.4263    0.8162 H   0  0  0  0  0  0  0  0  0  0  0  0
   -3.3902    1.4802    0.3130 H   0  0  0  0  0  0  0  0  0  0  0  0
   -1.0082    0.8743    1.3263 H   0  0  0  0  0  0  0  0  0  0  0  0
   -3.0742   -1.3610    1.4875 H   0  0  0  0  0  0  0  0  0  0  0  0
   -3.9669   -0.0784    2.9918 H   0  0  0  0  0  0  0  0  0  0  0  0
   -0.7749   -0.7927    2.8118 H   0  0  0  0  0  0  0  0  0  0  0  0
   -1.1788   -1.9208   -1.9732 H   0  0  0  0  0  0  0  0  0  0  0  0
   -1.9457   -2.4711   -0.4801 H   0  0  0  0  0  0  0  0  0  0  0  0
    1.1360   -0.7130   -1.5212 H   0  0  0  0  0  0  0  0  0  0  0  0
    2.8854   -1.1124   -0.0025 H   0  0  0  0  0  0  0  0  0  0  0  0
    4.0945   -0.4423    2.1361 H   0  0  0  0  0  0  0  0  0  0  0  0
    2.7843    0.7242    2.4554 H   0  0  0  0  0  0  0  0  0  0  0  0
    1.3576   -1.1767    2.1086 H   0  0  0  0  0  0  0  0  0  0  0  0
    4.6977    0.5921   -0.2017 H   0  0  0  0  0  0  0  0  0  0  0  0
    3.7328    2.0055   -2.1129 H   0  0  0  0  0  0  0  0  0  0  0  0
    1.4426    2.3331   -1.3724 H   0  0  0  0  0  0  0  0  0  0  0  0
    0.3424    1.4203   -3.1748 H   0  0  0  0  0  0  0  0  0  0  0  0
    3.1592    0.1704   -3.3705 H   0  0  0  0  0  0  0  0  0  0  0  0
  1  2  1  0
  2  3  1  0
  3  4  1  0
  4  5  1  0
  5  6  1  0
  6  7  1  0
  7  8  1  0
  6  9  1  0
  5 10  1  0
 10 11  1  0
  5 12  1  0
 12 13  1  0
 13 14  1  0
 14 15  1  0
 15 16  1  0
 16 17  1  0
 15 18  1  0
 18 19  1  0
 19 20  1  0
 20 21  1  0
 19 22  1  0
 18 23  1  0
  7  3  1  0
 20 13  1  0
  2 24  1  0
  2 25  1  0
  3 26  1  0
  6 27  1  0
  7 28  1  0
  8 29  1  0
  9 30  1  0
 10 31  1  0
 10 32  1  0
 13 33  1  0
 15 34  1  0
 16 35  1  0
 16 36  1  0
 17 37  1  0
 18 38  1  0
 19 39  1  0
 20 40  1  0
 21 41  1  0
 22 42  1  0
M  END
