
     RDKit          3D

 42 43  0  0  0  0  0  0  0  0999 V2000
    2.3203   -4.5889   -0.4491 I   0  0  0  0  0  0  0  0  0  0  0  0
    1.3572   -2.6893   -0.3190 C   0  0  0  0  0  0  0  0  0  0  0  0
    1.9176   -1.6916   -1.3374 C   0  0  0  0  0  0  0  0  0  0  0  0
    1.0104   -0.5677   -1.3953 O   0  0  0  0  0  0  0  0  0  0  0  0
    1.5911    0.5692   -0.7154 C   0  0  0  0  0  0  0  0  0  0  0  0
    2.9133    0.0559   -0.0904 C   0  0  0  0  0  0  0  0  0  0  0  0
    3.2812   -1.1199   -0.9709 C   0  0  0  0  0  0  0  0  0  0  0  0
    3.9599   -0.6439   -2.1422 O   0  0  0  0  0  0  0  0  0  0  0  0
    3.9992    0.9731   -0.0226 O   0  0  0  0  0  0  0  0  0  0  0  0
    1.7495    1.6874   -1.7727 C   0  0  0  0  0  0  0  0  0  0  0  0
    2.2236    3.6369   -0.9792 I   0  0  0  0  0  0  0  0  0  0  0  0
    0.7789    1.0159    0.3822 O   0  0  0  0  0  0  0  0  0  0  0  0
   -0.6349    0.9046    0.1865 C   0  0  0  0  0  0  0  0  0  0  0  0
   -1.0513   -0.4296    0.4549 O   0  0  0  0  0  0  0  0  0  0  0  0
   -2.4673   -0.6306    0.3011 C   0  0  0  0  0  0  0  0  0  0  0  0
   -2.7340   -2.1291    0.5229 C   0  0  0  0  0  0  0  0  0  0  0  0
   -2.4647   -2.5068    1.8717 O   0  0  0  0  0  0  0  0  0  0  0  0
   -3.2609    0.2769    1.2685 C   0  0  0  0  0  0  0  0  0  0  0  0
   -2.8088    1.7381    1.1410 C   0  0  0  0  0  0  0  0  0  0  0  0
   -1.2858    1.8547    1.2022 C   0  0  0  0  0  0  0  0  0  0  0  0
   -0.9382    3.2255    0.9504 O   0  0  0  0  0  0  0  0  0  0  0  0
   -3.3627    2.5350    2.2024 O   0  0  0  0  0  0  0  0  0  0  0  0
   -5.4300    0.1877    0.7701 I   0  0  0  0  0  0  0  0  0  0  0  0
    1.4195   -2.2948    0.7007 H   0  0  0  0  0  0  0  0  0  0  0  0
    0.2899   -2.8342   -0.5134 H   0  0  0  0  0  0  0  0  0  0  0  0
    1.9293   -2.1343   -2.3392 H   0  0  0  0  0  0  0  0  0  0  0  0
    2.7290   -0.3019    0.9288 H   0  0  0  0  0  0  0  0  0  0  0  0
    3.9576   -1.8233   -0.4796 H   0  0  0  0  0  0  0  0  0  0  0  0
    4.6315   -0.0137   -1.8033 H   0  0  0  0  0  0  0  0  0  0  0  0
    3.6840    1.7430    0.4893 H   0  0  0  0  0  0  0  0  0  0  0  0
    0.8087    1.7878   -2.3273 H   0  0  0  0  0  0  0  0  0  0  0  0
    2.4942    1.4051   -2.5243 H   0  0  0  0  0  0  0  0  0  0  0  0
   -0.8970    1.1968   -0.8371 H   0  0  0  0  0  0  0  0  0  0  0  0
   -2.7213   -0.3953   -0.7414 H   0  0  0  0  0  0  0  0  0  0  0  0
   -2.0818   -2.7283   -0.1240 H   0  0  0  0  0  0  0  0  0  0  0  0
   -3.7714   -2.3837    0.2924 H   0  0  0  0  0  0  0  0  0  0  0  0
   -2.9788   -3.3170    2.0537 H   0  0  0  0  0  0  0  0  0  0  0  0
   -3.1492   -0.0511    2.3101 H   0  0  0  0  0  0  0  0  0  0  0  0
   -3.1691    2.1779    0.2015 H   0  0  0  0  0  0  0  0  0  0  0  0
   -0.9373    1.6302    2.2169 H   0  0  0  0  0  0  0  0  0  0  0  0
    0.0368    3.2601    0.9447 H   0  0  0  0  0  0  0  0  0  0  0  0
   -2.9387    3.4132    2.1249 H   0  0  0  0  0  0  0  0  0  0  0  0
  1  2  1  0
  2  3  1  0
  3  4  1  0
  4  5  1  0
  5  6  1  0
  6  7  1  0
  7  8  1  0
  6  9  1  0
  5 10  1  0
 10 11  1  0
  5 12  1  0
 12 13  1  0
 13 14  1  0
 14 15  1  0
 15 16  1  0
 16 17  1  0
 15 18  1  0
 18 19  1  0
 19 20  1  0
 20 21  1  0
 19 22  1  0
 18 23  1  0
  7  3  1  0
 20 13  1  0
  2 24  1  0
  2 25  1  0
  3 26  1  0
  6 27  1  0
  7 28  1  0
  8 29  1  0
  9 30  1  0
 10 31  1  0
 10 32  1  0
 13 33  1  0
 15 34  1  0
 16 35  1  0
 16 36  1  0
 17 37  1  0
 18 38  1  0
 19 39  1  0
 20 40  1  0
 21 41  1  0
 22 42  1  0
M  END
