
     RDKit          3D

 43 44  0  0  0  0  0  0  0  0999 V2000
    4.7180   -0.7544    2.0877 O   0  0  0  0  0  0  0  0  0  0  0  0
    3.7607   -1.2763    1.1767 C   0  0  0  0  0  0  0  0  0  0  0  0
    3.5908   -0.3318   -0.0162 C   0  0  0  0  0  0  0  0  0  0  0  0
    2.5825   -0.8759   -0.8852 O   0  0  0  0  0  0  0  0  0  0  0  0
    1.3564   -0.0944   -0.7762 C   0  0  0  0  0  0  0  0  0  0  0  0
    1.6193    0.9037    0.3838 C   0  0  0  0  0  0  0  0  0  0  0  0
    3.1268    1.0640    0.3817 C   0  0  0  0  0  0  0  0  0  0  0  0
    3.4622    2.0486   -0.6113 O   0  0  0  0  0  0  0  0  0  0  0  0
    0.9568    2.1618    0.2592 O   0  0  0  0  0  0  0  0  0  0  0  0
    1.1407    0.5956   -2.1444 C   0  0  0  0  0  0  0  0  0  0  0  0
    0.8152   -0.5836   -3.4614 Cl  0  0  0  0  0  0  0  0  0  0  0  0
    0.3150   -1.0238   -0.4415 O   0  0  0  0  0  0  0  0  0  0  0  0
   -0.9594   -0.4737   -0.0781 C   0  0  0  0  0  0  0  0  0  0  0  0
   -1.5548    0.1869   -1.1884 O   0  0  0  0  0  0  0  0  0  0  0  0
   -2.8868    0.6839   -0.9542 C   0  0  0  0  0  0  0  0  0  0  0  0
   -2.8514    1.9250   -0.0404 C   0  0  0  0  0  0  0  0  0  0  0  0
   -2.6287    1.5823    1.3230 O   0  0  0  0  0  0  0  0  0  0  0  0
   -3.8308   -0.4576   -0.5352 C   0  0  0  0  0  0  0  0  0  0  0  0
   -3.2682   -1.2843    0.6293 C   0  0  0  0  0  0  0  0  0  0  0  0
   -1.8189   -1.6832    0.3423 C   0  0  0  0  0  0  0  0  0  0  0  0
   -1.8433   -2.6721   -0.7191 O   0  0  0  0  0  0  0  0  0  0  0  0
   -4.0328   -2.4921    0.8075 O   0  0  0  0  0  0  0  0  0  0  0  0
   -5.4835    0.1441   -0.1759 Cl  0  0  0  0  0  0  0  0  0  0  0  0
    4.8700   -1.4407    2.7630 H   0  0  0  0  0  0  0  0  0  0  0  0
    2.8140   -1.4314    1.7050 H   0  0  0  0  0  0  0  0  0  0  0  0
    4.0996   -2.2580    0.8272 H   0  0  0  0  0  0  0  0  0  0  0  0
    4.5308   -0.2789   -0.5767 H   0  0  0  0  0  0  0  0  0  0  0  0
    1.3097    0.4597    1.3372 H   0  0  0  0  0  0  0  0  0  0  0  0
    3.5178    1.4263    1.3364 H   0  0  0  0  0  0  0  0  0  0  0  0
    4.4371    2.0921   -0.6467 H   0  0  0  0  0  0  0  0  0  0  0  0
    1.5962    2.7462   -0.2023 H   0  0  0  0  0  0  0  0  0  0  0  0
    2.0366    1.1354   -2.4610 H   0  0  0  0  0  0  0  0  0  0  0  0
    0.3080    1.3012   -2.1389 H   0  0  0  0  0  0  0  0  0  0  0  0
   -0.8340    0.2018    0.7684 H   0  0  0  0  0  0  0  0  0  0  0  0
   -3.2206    1.0444   -1.9357 H   0  0  0  0  0  0  0  0  0  0  0  0
   -2.0378    2.5895   -0.3506 H   0  0  0  0  0  0  0  0  0  0  0  0
   -3.7927    2.4797   -0.1002 H   0  0  0  0  0  0  0  0  0  0  0  0
   -2.6044    2.4207    1.8203 H   0  0  0  0  0  0  0  0  0  0  0  0
   -3.9600   -1.1286   -1.3934 H   0  0  0  0  0  0  0  0  0  0  0  0
   -3.3264   -0.7328    1.5719 H   0  0  0  0  0  0  0  0  0  0  0  0
   -1.3759   -2.1933    1.2049 H   0  0  0  0  0  0  0  0  0  0  0  0
   -0.9594   -2.6137   -1.1414 H   0  0  0  0  0  0  0  0  0  0  0  0
   -3.6946   -3.1122    0.1274 H   0  0  0  0  0  0  0  0  0  0  0  0
  1  2  1  0
  2  3  1  0
  3  4  1  0
  4  5  1  0
  5  6  1  0
  6  7  1  0
  7  8  1  0
  6  9  1  0
  5 10  1  0
 10 11  1  0
  5 12  1  0
 12 13  1  0
 13 14  1  0
 14 15  1  0
 15 16  1  0
 16 17  1  0
 15 18  1  0
 18 19  1  0
 19 20  1  0
 20 21  1  0
 19 22  1  0
 18 23  1  0
  7  3  1  0
 20 13  1  0
  1 24  1  0
  2 25  1  0
  2 26  1  0
  3 27  1  0
  6 28  1  0
  7 29  1  0
  8 30  1  0
  9 31  1  0
 10 32  1  0
 10 33  1  0
 13 34  1  0
 15 35  1  0
 16 36  1  0
 16 37  1  0
 17 38  1  0
 18 39  1  0
 19 40  1  0
 20 41  1  0
 21 42  1  0
 22 43  1  0
M  END
