
     RDKit          3D

 42 43  0  0  0  0  0  0  0  0999 V2000
    3.4799   -1.4661    3.7222 Cl  0  0  0  0  0  0  0  0  0  0  0  0
    3.1068   -0.1446    2.5934 C   0  0  0  0  0  0  0  0  0  0  0  0
    2.1381   -0.5850    1.4966 C   0  0  0  0  0  0  0  0  0  0  0  0
    1.7300    0.6080    0.7718 O   0  0  0  0  0  0  0  0  0  0  0  0
    1.7736    0.2935   -0.6341 C   0  0  0  0  0  0  0  0  0  0  0  0
    2.9509   -0.7053   -0.7513 C   0  0  0  0  0  0  0  0  0  0  0  0
    2.7700   -1.5625    0.4939 C   0  0  0  0  0  0  0  0  0  0  0  0
    1.7111   -2.9754    0.1938 Cl  0  0  0  0  0  0  0  0  0  0  0  0
    4.2562   -0.1066   -0.6440 O   0  0  0  0  0  0  0  0  0  0  0  0
    1.9988    1.5871   -1.4507 C   0  0  0  0  0  0  0  0  0  0  0  0
    3.2127    2.2512   -1.0834 O   0  0  0  0  0  0  0  0  0  0  0  0
    0.5818   -0.3547   -1.0715 O   0  0  0  0  0  0  0  0  0  0  0  0
   -0.6347    0.2483   -0.6321 C   0  0  0  0  0  0  0  0  0  0  0  0
   -1.1773   -0.5685    0.4029 O   0  0  0  0  0  0  0  0  0  0  0  0
   -2.4410   -0.1047    0.9077 C   0  0  0  0  0  0  0  0  0  0  0  0
   -2.8378   -1.0378    2.0632 C   0  0  0  0  0  0  0  0  0  0  0  0
   -3.2518   -2.3089    1.5695 O   0  0  0  0  0  0  0  0  0  0  0  0
   -3.4881   -0.0646   -0.2165 C   0  0  0  0  0  0  0  0  0  0  0  0
   -2.9740    0.7876   -1.3797 C   0  0  0  0  0  0  0  0  0  0  0  0
   -1.5906    0.3172   -1.8326 C   0  0  0  0  0  0  0  0  0  0  0  0
   -1.0973    1.2404   -2.8206 O   0  0  0  0  0  0  0  0  0  0  0  0
   -3.8542    0.7284   -2.5154 O   0  0  0  0  0  0  0  0  0  0  0  0
   -5.0419    0.6324    0.3608 Cl  0  0  0  0  0  0  0  0  0  0  0  0
    4.0466    0.2272    2.1721 H   0  0  0  0  0  0  0  0  0  0  0  0
    2.6742    0.6762    3.1753 H   0  0  0  0  0  0  0  0  0  0  0  0
    1.2346   -0.9963    1.9622 H   0  0  0  0  0  0  0  0  0  0  0  0
    2.9249   -1.2817   -1.6816 H   0  0  0  0  0  0  0  0  0  0  0  0
    3.7168   -1.9775    0.8522 H   0  0  0  0  0  0  0  0  0  0  0  0
    4.2412    0.7414   -1.1381 H   0  0  0  0  0  0  0  0  0  0  0  0
    1.1849    2.3036   -1.3044 H   0  0  0  0  0  0  0  0  0  0  0  0
    2.0426    1.3590   -2.5209 H   0  0  0  0  0  0  0  0  0  0  0  0
    3.0989    2.5151   -0.1490 H   0  0  0  0  0  0  0  0  0  0  0  0
   -0.4612    1.2584   -0.2411 H   0  0  0  0  0  0  0  0  0  0  0  0
   -2.2780    0.8986    1.3231 H   0  0  0  0  0  0  0  0  0  0  0  0
   -1.9807   -1.1981    2.7265 H   0  0  0  0  0  0  0  0  0  0  0  0
   -3.6610   -0.6173    2.6483 H   0  0  0  0  0  0  0  0  0  0  0  0
   -3.2543   -2.9240    2.3238 H   0  0  0  0  0  0  0  0  0  0  0  0
   -3.7170   -1.0687   -0.5905 H   0  0  0  0  0  0  0  0  0  0  0  0
   -2.9171    1.8457   -1.0921 H   0  0  0  0  0  0  0  0  0  0  0  0
   -1.6600   -0.6618   -2.3230 H   0  0  0  0  0  0  0  0  0  0  0  0
   -1.8015    1.2758   -3.4999 H   0  0  0  0  0  0  0  0  0  0  0  0
   -4.7552    0.9151   -2.1869 H   0  0  0  0  0  0  0  0  0  0  0  0
  1  2  1  0
  2  3  1  0
  3  4  1  0
  4  5  1  0
  5  6  1  0
  6  7  1  0
  7  8  1  0
  6  9  1  0
  5 10  1  0
 10 11  1  0
  5 12  1  0
 12 13  1  0
 13 14  1  0
 14 15  1  0
 15 16  1  0
 16 17  1  0
 15 18  1  0
 18 19  1  0
 19 20  1  0
 20 21  1  0
 19 22  1  0
 18 23  1  0
  7  3  1  0
 20 13  1  0
  2 24  1  0
  2 25  1  0
  3 26  1  0
  6 27  1  0
  7 28  1  0
  9 29  1  0
 10 30  1  0
 10 31  1  0
 11 32  1  0
 13 33  1  0
 15 34  1  0
 16 35  1  0
 16 36  1  0
 17 37  1  0
 18 38  1  0
 19 39  1  0
 20 40  1  0
 21 41  1  0
 22 42  1  0
M  END
