
     RDKit          3D

 41 42  0  0  0  0  0  0  0  0999 V2000
    4.5335    3.1103   -0.4452 Cl  0  0  0  0  0  0  0  0  0  0  0  0
    3.7734    1.6720   -1.1797 C   0  0  0  0  0  0  0  0  0  0  0  0
    3.6896    0.5169   -0.1791 C   0  0  0  0  0  0  0  0  0  0  0  0
    2.7195    0.8418    0.8423 O   0  0  0  0  0  0  0  0  0  0  0  0
    1.5268    0.0065    0.6970 C   0  0  0  0  0  0  0  0  0  0  0  0
    1.6958   -0.6580   -0.6919 C   0  0  0  0  0  0  0  0  0  0  0  0
    3.1995   -0.7626   -0.8408 C   0  0  0  0  0  0  0  0  0  0  0  0
    3.6675   -1.9125   -0.1253 O   0  0  0  0  0  0  0  0  0  0  0  0
    1.1215   -1.9396   -0.8987 O   0  0  0  0  0  0  0  0  0  0  0  0
    1.5492   -0.8998    1.9543 C   0  0  0  0  0  0  0  0  0  0  0  0
    0.4275   -2.2851    1.9728 Cl  0  0  0  0  0  0  0  0  0  0  0  0
    0.4565    0.9591    0.6671 O   0  0  0  0  0  0  0  0  0  0  0  0
   -0.8828    0.4866    0.7915 C   0  0  0  0  0  0  0  0  0  0  0  0
   -1.2078   -0.3969   -0.2843 O   0  0  0  0  0  0  0  0  0  0  0  0
   -2.5820   -0.8525   -0.2352 C   0  0  0  0  0  0  0  0  0  0  0  0
   -2.7913   -1.8303   -1.4004 C   0  0  0  0  0  0  0  0  0  0  0  0
   -1.8435   -3.3242   -1.1556 Cl  0  0  0  0  0  0  0  0  0  0  0  0
   -3.5426    0.3504   -0.3410 C   0  0  0  0  0  0  0  0  0  0  0  0
   -3.2475    1.3733    0.7646 C   0  0  0  0  0  0  0  0  0  0  0  0
   -1.7705    1.7535    0.7374 C   0  0  0  0  0  0  0  0  0  0  0  0
   -1.4981    2.4952   -0.4646 O   0  0  0  0  0  0  0  0  0  0  0  0
   -3.5606    0.8384    2.0571 O   0  0  0  0  0  0  0  0  0  0  0  0
   -5.2627   -0.1546   -0.2273 Cl  0  0  0  0  0  0  0  0  0  0  0  0
    4.3814    1.3996   -2.0472 H   0  0  0  0  0  0  0  0  0  0  0  0
    2.7821    1.9853   -1.5200 H   0  0  0  0  0  0  0  0  0  0  0  0
    4.6556    0.3613    0.3144 H   0  0  0  0  0  0  0  0  0  0  0  0
    1.3013    0.0087   -1.4690 H   0  0  0  0  0  0  0  0  0  0  0  0
    3.5240   -0.8807   -1.8789 H   0  0  0  0  0  0  0  0  0  0  0  0
    3.0504   -2.6353   -0.3717 H   0  0  0  0  0  0  0  0  0  0  0  0
    0.1648   -1.8605   -0.6996 H   0  0  0  0  0  0  0  0  0  0  0  0
    1.3100   -0.2975    2.8379 H   0  0  0  0  0  0  0  0  0  0  0  0
    2.5502   -1.3088    2.1235 H   0  0  0  0  0  0  0  0  0  0  0  0
   -1.0239   -0.0070    1.7572 H   0  0  0  0  0  0  0  0  0  0  0  0
   -2.7352   -1.3811    0.7153 H   0  0  0  0  0  0  0  0  0  0  0  0
   -2.4508   -1.3941   -2.3445 H   0  0  0  0  0  0  0  0  0  0  0  0
   -3.8314   -2.1446   -1.5068 H   0  0  0  0  0  0  0  0  0  0  0  0
   -3.4186    0.8333   -1.3175 H   0  0  0  0  0  0  0  0  0  0  0  0
   -3.8609    2.2702    0.6144 H   0  0  0  0  0  0  0  0  0  0  0  0
   -1.5215    2.4061    1.5825 H   0  0  0  0  0  0  0  0  0  0  0  0
   -0.5232    2.5778   -0.4928 H   0  0  0  0  0  0  0  0  0  0  0  0
   -4.5251    0.6795    2.0713 H   0  0  0  0  0  0  0  0  0  0  0  0
  1  2  1  0
  2  3  1  0
  3  4  1  0
  4  5  1  0
  5  6  1  0
  6  7  1  0
  7  8  1  0
  6  9  1  0
  5 10  1  0
 10 11  1  0
  5 12  1  0
 12 13  1  0
 13 14  1  0
 14 15  1  0
 15 16  1  0
 16 17  1  0
 15 18  1  0
 18 19  1  0
 19 20  1  0
 20 21  1  0
 19 22  1  0
 18 23  1  0
  7  3  1  0
 20 13  1  0
  2 24  1  0
  2 25  1  0
  3 26  1  0
  6 27  1  0
  7 28  1  0
  8 29  1  0
  9 30  1  0
 10 31  1  0
 10 32  1  0
 13 33  1  0
 15 34  1  0
 16 35  1  0
 16 36  1  0
 18 37  1  0
 19 38  1  0
 20 39  1  0
 21 40  1  0
 22 41  1  0
M  END
