
     RDKit          3D

 44 45  0  0  0  0  0  0  0  0999 V2000
    5.8575   -0.4684    0.2804 O   0  0  0  0  0  0  0  0  0  0  0  0
    4.5704   -1.0208    0.0203 C   0  0  0  0  0  0  0  0  0  0  0  0
    3.6992   -0.0623   -0.7963 C   0  0  0  0  0  0  0  0  0  0  0  0
    2.4568   -0.7092   -1.1411 O   0  0  0  0  0  0  0  0  0  0  0  0
    1.3542    0.1104   -0.6945 C   0  0  0  0  0  0  0  0  0  0  0  0
    1.9438    1.0044    0.4148 C   0  0  0  0  0  0  0  0  0  0  0  0
    3.3515    1.2588   -0.0960 C   0  0  0  0  0  0  0  0  0  0  0  0
    4.2359    1.6187    0.9632 O   0  0  0  0  0  0  0  0  0  0  0  0
    2.0797    0.3396    1.6876 O   0  0  0  0  0  0  0  0  0  0  0  0
    0.8593    0.9354   -1.9176 C   0  0  0  0  0  0  0  0  0  0  0  0
    0.2515    0.1070   -2.9130 O   0  0  0  0  0  0  0  0  0  0  0  0
    0.3456   -0.7633   -0.1884 O   0  0  0  0  0  0  0  0  0  0  0  0
   -0.8892   -0.1603    0.1888 C   0  0  0  0  0  0  0  0  0  0  0  0
   -1.8089   -0.3143   -0.8866 O   0  0  0  0  0  0  0  0  0  0  0  0
   -3.1203    0.1843   -0.5838 C   0  0  0  0  0  0  0  0  0  0  0  0
   -3.9750    0.1291   -1.8534 C   0  0  0  0  0  0  0  0  0  0  0  0
   -5.2568    0.6891   -1.6018 O   0  0  0  0  0  0  0  0  0  0  0  0
   -3.7442   -0.5617    0.6114 C   0  0  0  0  0  0  0  0  0  0  0  0
   -2.7964   -0.4448    1.8115 C   0  0  0  0  0  0  0  0  0  0  0  0
   -1.3689   -0.8764    1.4624 C   0  0  0  0  0  0  0  0  0  0  0  0
   -0.4907   -0.5416    2.5554 O   0  0  0  0  0  0  0  0  0  0  0  0
   -3.2520   -1.1908    2.9495 O   0  0  0  0  0  0  0  0  0  0  0  0
   -4.0331   -2.3043    0.2464 Cl  0  0  0  0  0  0  0  0  0  0  0  0
    5.7040    0.4103    0.6865 H   0  0  0  0  0  0  0  0  0  0  0  0
    4.0980   -1.2836    0.9724 H   0  0  0  0  0  0  0  0  0  0  0  0
    4.7081   -1.9595   -0.5270 H   0  0  0  0  0  0  0  0  0  0  0  0
    4.2267    0.1671   -1.7302 H   0  0  0  0  0  0  0  0  0  0  0  0
    1.3792    1.9239    0.5933 H   0  0  0  0  0  0  0  0  0  0  0  0
    3.3490    2.0722   -0.8301 H   0  0  0  0  0  0  0  0  0  0  0  0
    3.8252    1.2378    1.7730 H   0  0  0  0  0  0  0  0  0  0  0  0
    1.2447   -0.1477    1.8687 H   0  0  0  0  0  0  0  0  0  0  0  0
    1.6842    1.4614   -2.4071 H   0  0  0  0  0  0  0  0  0  0  0  0
    0.1124    1.6771   -1.6187 H   0  0  0  0  0  0  0  0  0  0  0  0
   -0.1767   -0.6319   -2.4340 H   0  0  0  0  0  0  0  0  0  0  0  0
   -0.7492    0.9060    0.4053 H   0  0  0  0  0  0  0  0  0  0  0  0
   -3.0233    1.2438   -0.3070 H   0  0  0  0  0  0  0  0  0  0  0  0
   -3.4917    0.7048   -2.6509 H   0  0  0  0  0  0  0  0  0  0  0  0
   -4.0895   -0.8939   -2.2257 H   0  0  0  0  0  0  0  0  0  0  0  0
   -5.7644    0.6128   -2.4305 H   0  0  0  0  0  0  0  0  0  0  0  0
   -4.7246   -0.1509    0.8730 H   0  0  0  0  0  0  0  0  0  0  0  0
   -2.7728    0.6008    2.1439 H   0  0  0  0  0  0  0  0  0  0  0  0
   -1.3067   -1.9644    1.3431 H   0  0  0  0  0  0  0  0  0  0  0  0
   -0.9336   -0.8876    3.3587 H   0  0  0  0  0  0  0  0  0  0  0  0
   -3.5691   -2.0572    2.6244 H   0  0  0  0  0  0  0  0  0  0  0  0
  1  2  1  0
  2  3  1  0
  3  4  1  0
  4  5  1  0
  5  6  1  0
  6  7  1  0
  7  8  1  0
  6  9  1  0
  5 10  1  0
 10 11  1  0
  5 12  1  0
 12 13  1  0
 13 14  1  0
 14 15  1  0
 15 16  1  0
 16 17  1  0
 15 18  1  0
 18 19  1  0
 19 20  1  0
 20 21  1  0
 19 22  1  0
 18 23  1  0
  7  3  1  0
 20 13  1  0
  1 24  1  0
  2 25  1  0
  2 26  1  0
  3 27  1  0
  6 28  1  0
  7 29  1  0
  8 30  1  0
  9 31  1  0
 10 32  1  0
 10 33  1  0
 11 34  1  0
 13 35  1  0
 15 36  1  0
 16 37  1  0
 16 38  1  0
 17 39  1  0
 18 40  1  0
 19 41  1  0
 20 42  1  0
 21 43  1  0
 22 44  1  0
M  END
