
     RDKit          3D

 41 42  0  0  0  0  0  0  0  0999 V2000
   -4.1052    0.5509    3.9216 Br  0  0  0  0  0  0  0  0  0  0  0  0
   -3.4470    1.1958    2.2129 C   0  0  0  0  0  0  0  0  0  0  0  0
   -2.5761    0.1652    1.5053 C   0  0  0  0  0  0  0  0  0  0  0  0
   -1.7377    0.8805    0.5697 O   0  0  0  0  0  0  0  0  0  0  0  0
   -1.5026    0.0588   -0.5905 C   0  0  0  0  0  0  0  0  0  0  0  0
   -2.3317   -1.2366   -0.3883 C   0  0  0  0  0  0  0  0  0  0  0  0
   -3.3414   -0.8477    0.6719 C   0  0  0  0  0  0  0  0  0  0  0  0
   -3.8644   -2.4268    1.6841 Br  0  0  0  0  0  0  0  0  0  0  0  0
   -2.9514   -1.7413   -1.5683 O   0  0  0  0  0  0  0  0  0  0  0  0
   -1.8189    0.8330   -1.8826 C   0  0  0  0  0  0  0  0  0  0  0  0
   -3.6296    1.5635   -1.9409 Br  0  0  0  0  0  0  0  0  0  0  0  0
   -0.1293   -0.3777   -0.6051 O   0  0  0  0  0  0  0  0  0  0  0  0
    0.8405    0.6549   -0.4347 C   0  0  0  0  0  0  0  0  0  0  0  0
    1.5127    0.4792    0.8204 O   0  0  0  0  0  0  0  0  0  0  0  0
    2.2065   -0.7804    0.9145 C   0  0  0  0  0  0  0  0  0  0  0  0
    2.8730   -0.8327    2.2917 C   0  0  0  0  0  0  0  0  0  0  0  0
    3.7214    0.3006    2.4746 O   0  0  0  0  0  0  0  0  0  0  0  0
    3.2426   -0.9468   -0.1998 C   0  0  0  0  0  0  0  0  0  0  0  0
    2.6143   -0.7118   -1.5701 C   0  0  0  0  0  0  0  0  0  0  0  0
    1.8647    0.6197   -1.5836 C   0  0  0  0  0  0  0  0  0  0  0  0
    1.2395    0.8081   -2.8599 O   0  0  0  0  0  0  0  0  0  0  0  0
    3.6232   -0.6708   -2.5959 O   0  0  0  0  0  0  0  0  0  0  0  0
    3.7281   -2.2232   -0.1786 F   0  0  0  0  0  0  0  0  0  0  0  0
   -4.3163    1.4882    1.6167 H   0  0  0  0  0  0  0  0  0  0  0  0
   -2.8784    2.1039    2.4379 H   0  0  0  0  0  0  0  0  0  0  0  0
   -1.8951   -0.3227    2.2143 H   0  0  0  0  0  0  0  0  0  0  0  0
   -1.6673   -2.0332   -0.0269 H   0  0  0  0  0  0  0  0  0  0  0  0
   -4.2641   -0.4526    0.2381 H   0  0  0  0  0  0  0  0  0  0  0  0
   -3.4319   -2.5532   -1.3217 H   0  0  0  0  0  0  0  0  0  0  0  0
   -1.1862    1.7188   -1.9849 H   0  0  0  0  0  0  0  0  0  0  0  0
   -1.6797    0.2191   -2.7772 H   0  0  0  0  0  0  0  0  0  0  0  0
    0.3763    1.6465   -0.4148 H   0  0  0  0  0  0  0  0  0  0  0  0
    1.4795   -1.6010    0.8701 H   0  0  0  0  0  0  0  0  0  0  0  0
    3.4705   -1.7407    2.4158 H   0  0  0  0  0  0  0  0  0  0  0  0
    2.1174   -0.8023    3.0839 H   0  0  0  0  0  0  0  0  0  0  0  0
    3.1450    1.0812    2.3625 H   0  0  0  0  0  0  0  0  0  0  0  0
    4.0960   -0.2722   -0.0674 H   0  0  0  0  0  0  0  0  0  0  0  0
    1.9481   -1.5397   -1.8395 H   0  0  0  0  0  0  0  0  0  0  0  0
    2.5835    1.4393   -1.4582 H   0  0  0  0  0  0  0  0  0  0  0  0
    1.9273    0.5718   -3.5157 H   0  0  0  0  0  0  0  0  0  0  0  0
    4.1442   -1.4922   -2.5013 H   0  0  0  0  0  0  0  0  0  0  0  0
  1  2  1  0
  2  3  1  0
  3  4  1  0
  4  5  1  0
  5  6  1  0
  6  7  1  0
  7  8  1  0
  6  9  1  0
  5 10  1  0
 10 11  1  0
  5 12  1  0
 12 13  1  0
 13 14  1  0
 14 15  1  0
 15 16  1  0
 16 17  1  0
 15 18  1  0
 18 19  1  0
 19 20  1  0
 20 21  1  0
 19 22  1  0
 18 23  1  0
  7  3  1  0
 20 13  1  0
  2 24  1  0
  2 25  1  0
  3 26  1  0
  6 27  1  0
  7 28  1  0
  9 29  1  0
 10 30  1  0
 10 31  1  0
 13 32  1  0
 15 33  1  0
 16 34  1  0
 16 35  1  0
 17 36  1  0
 18 37  1  0
 19 38  1  0
 20 39  1  0
 21 40  1  0
 22 41  1  0
M  END
