
     RDKit          3D

 41 42  0  0  0  0  0  0  0  0999 V2000
    4.7413    0.3391    3.4278 Cl  0  0  0  0  0  0  0  0  0  0  0  0
    3.5574    1.2066    2.4249 C   0  0  0  0  0  0  0  0  0  0  0  0
    2.6703    0.2531    1.6250 C   0  0  0  0  0  0  0  0  0  0  0  0
    1.6599    1.0577    0.9681 O   0  0  0  0  0  0  0  0  0  0  0  0
    1.5424    0.6051   -0.3972 C   0  0  0  0  0  0  0  0  0  0  0  0
    2.9612    0.1090   -0.7546 C   0  0  0  0  0  0  0  0  0  0  0  0
    3.4365   -0.5225    0.5459 C   0  0  0  0  0  0  0  0  0  0  0  0
    3.0699   -2.2743    0.6008 Cl  0  0  0  0  0  0  0  0  0  0  0  0
    3.8542    1.1905   -1.0725 O   0  0  0  0  0  0  0  0  0  0  0  0
    1.0848    1.7871   -1.2757 C   0  0  0  0  0  0  0  0  0  0  0  0
    0.9963    1.3837   -3.0128 Cl  0  0  0  0  0  0  0  0  0  0  0  0
    0.6611   -0.5203   -0.4447 O   0  0  0  0  0  0  0  0  0  0  0  0
   -0.6767   -0.2679   -0.0219 C   0  0  0  0  0  0  0  0  0  0  0  0
   -1.4474    0.0548   -1.1798 O   0  0  0  0  0  0  0  0  0  0  0  0
   -2.8329    0.2815   -0.8857 C   0  0  0  0  0  0  0  0  0  0  0  0
   -3.5194    0.6943   -2.1885 C   0  0  0  0  0  0  0  0  0  0  0  0
   -2.8940    1.8702   -2.7036 O   0  0  0  0  0  0  0  0  0  0  0  0
   -3.4714   -0.9770   -0.3104 C   0  0  0  0  0  0  0  0  0  0  0  0
   -2.7115   -1.4217    0.9333 C   0  0  0  0  0  0  0  0  0  0  0  0
   -1.2129   -1.5483    0.6514 C   0  0  0  0  0  0  0  0  0  0  0  0
   -0.5397   -1.7946    1.8974 O   0  0  0  0  0  0  0  0  0  0  0  0
   -3.1990   -2.6917    1.3986 O   0  0  0  0  0  0  0  0  0  0  0  0
   -4.7586   -0.7127    0.0521 F   0  0  0  0  0  0  0  0  0  0  0  0
    4.1009    1.8905    1.7644 H   0  0  0  0  0  0  0  0  0  0  0  0
    2.9469    1.8271    3.0896 H   0  0  0  0  0  0  0  0  0  0  0  0
    2.1454   -0.4137    2.3194 H   0  0  0  0  0  0  0  0  0  0  0  0
    2.9578   -0.5869   -1.6010 H   0  0  0  0  0  0  0  0  0  0  0  0
    4.5215   -0.4477    0.6630 H   0  0  0  0  0  0  0  0  0  0  0  0
    4.5946    0.8117   -1.5823 H   0  0  0  0  0  0  0  0  0  0  0  0
    1.7583    2.6438   -1.1651 H   0  0  0  0  0  0  0  0  0  0  0  0
    0.0953    2.1457   -0.9772 H   0  0  0  0  0  0  0  0  0  0  0  0
   -0.7106    0.5624    0.6948 H   0  0  0  0  0  0  0  0  0  0  0  0
   -2.9035    1.1180   -0.1784 H   0  0  0  0  0  0  0  0  0  0  0  0
   -3.4297   -0.0854   -2.9522 H   0  0  0  0  0  0  0  0  0  0  0  0
   -4.5793    0.9126   -2.0286 H   0  0  0  0  0  0  0  0  0  0  0  0
   -1.9517    1.6398   -2.8269 H   0  0  0  0  0  0  0  0  0  0  0  0
   -3.4964   -1.7905   -1.0446 H   0  0  0  0  0  0  0  0  0  0  0  0
   -2.8835   -0.7158    1.7551 H   0  0  0  0  0  0  0  0  0  0  0  0
   -1.0182   -2.4185    0.0119 H   0  0  0  0  0  0  0  0  0  0  0  0
   -0.9566   -2.6017    2.2587 H   0  0  0  0  0  0  0  0  0  0  0  0
   -4.1631   -2.5932    1.5217 H   0  0  0  0  0  0  0  0  0  0  0  0
  1  2  1  0
  2  3  1  0
  3  4  1  0
  4  5  1  0
  5  6  1  0
  6  7  1  0
  7  8  1  0
  6  9  1  0
  5 10  1  0
 10 11  1  0
  5 12  1  0
 12 13  1  0
 13 14  1  0
 14 15  1  0
 15 16  1  0
 16 17  1  0
 15 18  1  0
 18 19  1  0
 19 20  1  0
 20 21  1  0
 19 22  1  0
 18 23  1  0
  7  3  1  0
 20 13  1  0
  2 24  1  0
  2 25  1  0
  3 26  1  0
  6 27  1  0
  7 28  1  0
  9 29  1  0
 10 30  1  0
 10 31  1  0
 13 32  1  0
 15 33  1  0
 16 34  1  0
 16 35  1  0
 17 36  1  0
 18 37  1  0
 19 38  1  0
 20 39  1  0
 21 40  1  0
 22 41  1  0
M  END
