
     RDKit          3D

 18 17  0  0  0  0  0  0  0  0999 V2000
   -3.5604   -0.1941   -0.8028 C   0  0  0  0  0  0  0  0  0  0  0  0
   -2.8193    0.9127   -0.6802 C   0  0  0  0  0  0  0  0  0  0  0  0
   -1.4795    1.0314   -0.4462 O   0  0  0  0  0  0  0  0  0  0  0  0
   -0.7308   -0.1773   -0.3069 C   0  0  0  0  0  0  0  0  0  0  0  0
    0.7308    0.1773   -0.0530 C   0  0  0  0  0  0  0  0  0  0  0  0
    1.4795   -1.0314    0.0863 O   0  0  0  0  0  0  0  0  0  0  0  0
    2.8193   -0.9127    0.3203 C   0  0  0  0  0  0  0  0  0  0  0  0
    3.5604    0.1941    0.4429 C   0  0  0  0  0  0  0  0  0  0  0  0
   -4.6266   -0.1130   -0.9903 H   0  0  0  0  0  0  0  0  0  0  0  0
   -3.1513   -1.1939   -0.7245 H   0  0  0  0  0  0  0  0  0  0  0  0
   -3.2559    1.9029   -0.7633 H   0  0  0  0  0  0  0  0  0  0  0  0
   -1.1115   -0.7702    0.5342 H   0  0  0  0  0  0  0  0  0  0  0  0
   -0.8040   -0.7818   -1.2197 H   0  0  0  0  0  0  0  0  0  0  0  0
    1.1115    0.7702   -0.8941 H   0  0  0  0  0  0  0  0  0  0  0  0
    0.8040    0.7818    0.8598 H   0  0  0  0  0  0  0  0  0  0  0  0
    3.2559   -1.9029    0.4034 H   0  0  0  0  0  0  0  0  0  0  0  0
    3.1513    1.1939    0.3646 H   0  0  0  0  0  0  0  0  0  0  0  0
    4.6266    0.1130    0.6304 H   0  0  0  0  0  0  0  0  0  0  0  0
  1  2  2  0
  2  3  1  0
  3  4  1  0
  4  5  1  0
  5  6  1  0
  6  7  1  0
  7  8  2  0
  1  9  1  0
  1 10  1  0
  2 11  1  0
  4 12  1  0
  4 13  1  0
  5 14  1  0
  5 15  1  0
  7 16  1  0
  8 17  1  0
  8 18  1  0
M  END
