
     RDKit          3D

 85 88  0  0  0  0  0  0  0  0999 V2000
    8.5518    3.4700   -1.4374 C   0  0  0  0  0  0  0  0  0  0  0  0
    9.0198    2.2836   -2.2680 C   0  0  0  0  0  0  0  0  0  0  0  0
    8.0155    1.1343   -2.2554 C   0  0  0  0  0  0  0  0  0  0  0  0
    7.9098    0.6301   -0.9231 O   0  0  0  0  0  0  0  0  0  0  0  0
    7.0415   -0.4114   -0.7234 C   0  0  0  0  0  0  0  0  0  0  0  0
    6.2086   -0.9897   -1.6806 C   0  0  0  0  0  0  0  0  0  0  0  0
    5.3664   -2.0518   -1.3304 C   0  0  0  0  0  0  0  0  0  0  0  0
    5.3483   -2.5550   -0.0220 C   0  0  0  0  0  0  0  0  0  0  0  0
    6.1826   -1.9734    0.9382 C   0  0  0  0  0  0  0  0  0  0  0  0
    7.0128   -0.9174    0.5810 C   0  0  0  0  0  0  0  0  0  0  0  0
    7.8184   -0.3744    1.5473 O   0  0  0  0  0  0  0  0  0  0  0  0
    4.4359   -3.7019    0.3450 C   0  0  0  0  0  0  0  0  0  0  0  0
    3.2001   -3.2517    1.1251 C   0  0  0  0  0  0  0  0  0  0  0  0
    2.1721   -2.5662    0.2440 C   0  0  0  0  0  0  0  0  0  0  0  0
    2.0874   -2.7828   -0.9654 O   0  0  0  0  0  0  0  0  0  0  0  0
    1.2059   -1.5969    0.8384 C   0  0  0  0  0  0  0  0  0  0  0  0
    0.8059   -1.6317    2.1789 C   0  0  0  0  0  0  0  0  0  0  0  0
    1.2651   -2.5992    3.0278 O   0  0  0  0  0  0  0  0  0  0  0  0
   -0.1093   -0.6970    2.6731 C   0  0  0  0  0  0  0  0  0  0  0  0
   -0.6646    0.2731    1.8323 C   0  0  0  0  0  0  0  0  0  0  0  0
   -0.2775    0.3243    0.4993 C   0  0  0  0  0  0  0  0  0  0  0  0
    0.6434   -0.6092    0.0089 C   0  0  0  0  0  0  0  0  0  0  0  0
    0.9500   -0.4896   -1.3269 O   0  0  0  0  0  0  0  0  0  0  0  0
   -1.5652    1.0953    2.4438 O   0  0  0  0  0  0  0  0  0  0  0  0
   -2.4987    1.8383    1.6493 C   0  0  0  0  0  0  0  0  0  0  0  0
   -3.0975    2.8459    2.4838 O   0  0  0  0  0  0  0  0  0  0  0  0
   -3.9270    2.3647    3.5590 C   0  0  0  0  0  0  0  0  0  0  0  0
   -3.2160    2.5530    4.9095 C   0  0  0  0  0  0  0  0  0  0  0  0
   -2.0531    1.7358    5.0254 O   0  0  0  0  0  0  0  0  0  0  0  0
   -4.4464    0.9344    3.3641 C   0  0  0  0  0  0  0  0  0  0  0  0
   -4.8028    0.7537    1.8928 C   0  0  0  0  0  0  0  0  0  0  0  0
   -3.5710    0.9254    0.9891 C   0  0  0  0  0  0  0  0  0  0  0  0
   -4.0035    1.5351   -0.2458 O   0  0  0  0  0  0  0  0  0  0  0  0
   -4.2906    0.5916   -1.2868 C   0  0  0  0  0  0  0  0  0  0  0  0
   -5.4177   -0.2139   -0.9306 O   0  0  0  0  0  0  0  0  0  0  0  0
   -5.6149   -1.3078   -1.8507 C   0  0  0  0  0  0  0  0  0  0  0  0
   -7.0297   -1.8240   -1.5913 C   0  0  0  0  0  0  0  0  0  0  0  0
   -5.4433   -0.8813   -3.3242 C   0  0  0  0  0  0  0  0  0  0  0  0
   -5.6170    0.6353   -3.4586 C   0  0  0  0  0  0  0  0  0  0  0  0
   -4.6143    1.3951   -2.5687 C   0  0  0  0  0  0  0  0  0  0  0  0
   -3.4054    1.6925   -3.2842 O   0  0  0  0  0  0  0  0  0  0  0  0
   -5.4393    1.0243   -4.8311 O   0  0  0  0  0  0  0  0  0  0  0  0
   -4.1277   -1.2414   -3.7573 O   0  0  0  0  0  0  0  0  0  0  0  0
   -5.3797   -0.5559    1.7229 O   0  0  0  0  0  0  0  0  0  0  0  0
   -5.6144    0.7130    4.1651 O   0  0  0  0  0  0  0  0  0  0  0  0
    8.4490    3.1997   -0.3809 H   0  0  0  0  0  0  0  0  0  0  0  0
    9.2757    4.2878   -1.5044 H   0  0  0  0  0  0  0  0  0  0  0  0
    7.5853    3.8395   -1.7918 H   0  0  0  0  0  0  0  0  0  0  0  0
    9.1802    2.6103   -3.3004 H   0  0  0  0  0  0  0  0  0  0  0  0
    9.9828    1.9372   -1.8720 H   0  0  0  0  0  0  0  0  0  0  0  0
    7.0429    1.4989   -2.6022 H   0  0  0  0  0  0  0  0  0  0  0  0
    8.3750    0.3448   -2.9259 H   0  0  0  0  0  0  0  0  0  0  0  0
    6.1832   -0.6403   -2.7076 H   0  0  0  0  0  0  0  0  0  0  0  0
    4.7174   -2.4852   -2.0897 H   0  0  0  0  0  0  0  0  0  0  0  0
    6.1947   -2.3371    1.9617 H   0  0  0  0  0  0  0  0  0  0  0  0
    8.3284    0.3172    1.0801 H   0  0  0  0  0  0  0  0  0  0  0  0
    5.0077   -4.4043    0.9652 H   0  0  0  0  0  0  0  0  0  0  0  0
    4.1482   -4.2623   -0.5528 H   0  0  0  0  0  0  0  0  0  0  0  0
    3.5013   -2.5814    1.9346 H   0  0  0  0  0  0  0  0  0  0  0  0
    2.7174   -4.1370    1.5548 H   0  0  0  0  0  0  0  0  0  0  0  0
    0.9356   -2.4291    3.9258 H   0  0  0  0  0  0  0  0  0  0  0  0
   -0.4283   -0.7235    3.7136 H   0  0  0  0  0  0  0  0  0  0  0  0
   -0.6573    1.0704   -0.1926 H   0  0  0  0  0  0  0  0  0  0  0  0
    1.4405   -1.3014   -1.5907 H   0  0  0  0  0  0  0  0  0  0  0  0
   -1.9554    2.4067    0.8868 H   0  0  0  0  0  0  0  0  0  0  0  0
   -4.7932    3.0418    3.5743 H   0  0  0  0  0  0  0  0  0  0  0  0
   -2.8899    3.5915    5.0205 H   0  0  0  0  0  0  0  0  0  0  0  0
   -3.8849    2.3090    5.7434 H   0  0  0  0  0  0  0  0  0  0  0  0
   -1.5295    1.8952    4.2157 H   0  0  0  0  0  0  0  0  0  0  0  0
   -3.7094    0.1850    3.6702 H   0  0  0  0  0  0  0  0  0  0  0  0
   -5.5947    1.4635    1.6164 H   0  0  0  0  0  0  0  0  0  0  0  0
   -3.1346   -0.0552    0.7698 H   0  0  0  0  0  0  0  0  0  0  0  0
   -3.4000   -0.0335   -1.4344 H   0  0  0  0  0  0  0  0  0  0  0  0
   -4.8982   -2.0968   -1.5879 H   0  0  0  0  0  0  0  0  0  0  0  0
   -7.1464   -2.1035   -0.5370 H   0  0  0  0  0  0  0  0  0  0  0  0
   -7.7741   -1.0466   -1.7997 H   0  0  0  0  0  0  0  0  0  0  0  0
   -7.2554   -2.6974   -2.2100 H   0  0  0  0  0  0  0  0  0  0  0  0
   -6.1284   -1.4238   -3.9827 H   0  0  0  0  0  0  0  0  0  0  0  0
   -6.6421    0.8915   -3.1643 H   0  0  0  0  0  0  0  0  0  0  0  0
   -5.0445    2.3695   -2.3129 H   0  0  0  0  0  0  0  0  0  0  0  0
   -3.6391    1.6855   -4.2332 H   0  0  0  0  0  0  0  0  0  0  0  0
   -5.8742    1.8930   -4.9341 H   0  0  0  0  0  0  0  0  0  0  0  0
   -4.0428   -0.9053   -4.6698 H   0  0  0  0  0  0  0  0  0  0  0  0
   -5.6575   -0.5809    0.7830 H   0  0  0  0  0  0  0  0  0  0  0  0
   -6.0001   -0.1187    3.8169 H   0  0  0  0  0  0  0  0  0  0  0  0
  1  2  1  0
  2  3  1  0
  3  4  1  0
  4  5  1  0
  5  6  2  0
  6  7  1  0
  7  8  2  0
  8  9  1  0
  9 10  2  0
 10 11  1  0
  8 12  1  0
 12 13  1  0
 13 14  1  0
 14 15  2  0
 14 16  1  0
 16 17  2  0
 17 18  1  0
 17 19  1  0
 19 20  2  0
 20 21  1  0
 21 22  2  0
 22 23  1  0
 20 24  1  0
 24 25  1  0
 25 26  1  0
 26 27  1  0
 27 28  1  0
 28 29  1  0
 27 30  1  0
 30 31  1  0
 31 32  1  0
 32 33  1  0
 33 34  1  0
 34 35  1  0
 35 36  1  0
 36 37  1  0
 36 38  1  0
 38 39  1  0
 39 40  1  0
 40 41  1  0
 39 42  1  0
 38 43  1  0
 31 44  1  0
 30 45  1  0
 10  5  1  0
 22 16  1  0
 32 25  1  0
 40 34  1  0
  1 46  1  0
  1 47  1  0
  1 48  1  0
  2 49  1  0
  2 50  1  0
  3 51  1  0
  3 52  1  0
  6 53  1  0
  7 54  1  0
  9 55  1  0
 11 56  1  0
 12 57  1  0
 12 58  1  0
 13 59  1  0
 13 60  1  0
 18 61  1  0
 19 62  1  0
 21 63  1  0
 23 64  1  0
 25 65  1  0
 27 66  1  0
 28 67  1  0
 28 68  1  0
 29 69  1  0
 30 70  1  0
 31 71  1  0
 32 72  1  0
 34 73  1  0
 36 74  1  0
 37 75  1  0
 37 76  1  0
 37 77  1  0
 38 78  1  0
 39 79  1  0
 40 80  1  0
 41 81  1  0
 42 82  1  0
 43 83  1  0
 44 84  1  0
 45 85  1  0
M  END
