
     RDKit          3D

 42 44  0  0  0  0  0  0  0  0999 V2000
   -1.8384    3.1117   -0.0987 O   0  0  0  0  0  0  0  0  0  0  0  0
   -2.0592    2.0065    0.6383 C   0  0  0  0  0  0  0  0  0  0  0  0
   -2.3090    2.1155    1.8278 O   0  0  0  0  0  0  0  0  0  0  0  0
   -1.8267    0.7036   -0.1264 C   0  0  0  0  0  0  0  0  0  0  0  0
   -2.5490    0.8536   -1.4880 C   0  0  0  0  0  0  0  0  0  0  0  0
   -2.5068   -0.4451    0.6560 C   0  0  0  0  0  0  0  0  0  0  0  0
   -2.1568   -1.8333    0.1345 C   0  0  0  0  0  0  0  0  0  0  0  0
   -0.6533   -2.0575    0.1542 C   0  0  0  0  0  0  0  0  0  0  0  0
    0.1312   -1.0051   -0.6558 C   0  0  0  0  0  0  0  0  0  0  0  0
   -0.2853    0.4776   -0.3180 C   0  0  0  0  0  0  0  0  0  0  0  0
    0.6392    0.9074    0.8868 C   0  0  0  0  0  0  0  0  0  0  0  0
    0.0792    0.5408    2.1400 O   0  0  0  0  0  0  0  0  0  0  0  0
    1.0162    2.4081    0.8067 C   0  0  0  0  0  0  0  0  0  0  0  0
    0.7036    3.2590    1.6301 O   0  0  0  0  0  0  0  0  0  0  0  0
    1.7135    2.7649   -0.2911 O   0  0  0  0  0  0  0  0  0  0  0  0
    1.8466    0.0217    0.6866 C   0  0  0  0  0  0  0  0  0  0  0  0
    1.5769   -1.0300   -0.1945 C   0  0  0  0  0  0  0  0  0  0  0  0
    2.5579   -1.9707   -0.4898 C   0  0  0  0  0  0  0  0  0  0  0  0
    3.8166   -1.8444    0.1014 C   0  0  0  0  0  0  0  0  0  0  0  0
    4.0813   -0.7985    0.9932 C   0  0  0  0  0  0  0  0  0  0  0  0
    3.0917    0.1365    1.2979 C   0  0  0  0  0  0  0  0  0  0  0  0
    0.0444   -1.2922   -2.1646 C   0  0  0  0  0  0  0  0  0  0  0  0
   -1.9350    3.8486    0.5445 H   0  0  0  0  0  0  0  0  0  0  0  0
   -3.5633    1.2487   -1.3497 H   0  0  0  0  0  0  0  0  0  0  0  0
   -2.6524   -0.0906   -2.0243 H   0  0  0  0  0  0  0  0  0  0  0  0
   -2.0224    1.5509   -2.1498 H   0  0  0  0  0  0  0  0  0  0  0  0
   -2.2359   -0.4040    1.7181 H   0  0  0  0  0  0  0  0  0  0  0  0
   -3.5975   -0.3190    0.6332 H   0  0  0  0  0  0  0  0  0  0  0  0
   -2.5543   -1.9860   -0.8738 H   0  0  0  0  0  0  0  0  0  0  0  0
   -2.6401   -2.5858    0.7692 H   0  0  0  0  0  0  0  0  0  0  0  0
   -0.3262   -2.0578    1.2034 H   0  0  0  0  0  0  0  0  0  0  0  0
   -0.4328   -3.0662   -0.2190 H   0  0  0  0  0  0  0  0  0  0  0  0
    0.0233    1.0970   -1.1752 H   0  0  0  0  0  0  0  0  0  0  0  0
   -0.4450    1.2997    2.4678 H   0  0  0  0  0  0  0  0  0  0  0  0
    1.8812    3.7235   -0.1804 H   0  0  0  0  0  0  0  0  0  0  0  0
    2.3570   -2.8055   -1.1537 H   0  0  0  0  0  0  0  0  0  0  0  0
    4.5922   -2.5737   -0.1186 H   0  0  0  0  0  0  0  0  0  0  0  0
    5.0599   -0.7224    1.4604 H   0  0  0  0  0  0  0  0  0  0  0  0
    3.2946    0.9316    2.0092 H   0  0  0  0  0  0  0  0  0  0  0  0
    0.4263   -2.2906   -2.4071 H   0  0  0  0  0  0  0  0  0  0  0  0
    0.6364   -0.5729   -2.7427 H   0  0  0  0  0  0  0  0  0  0  0  0
   -0.9797   -1.2553   -2.5381 H   0  0  0  0  0  0  0  0  0  0  0  0
  1  2  1  0
  2  3  2  0
  2  4  1  0
  4  5  1  0
  4  6  1  0
  6  7  1  0
  7  8  1  0
  8  9  1  0
  9 10  1  0
 10 11  1  0
 11 12  1  0
 11 13  1  0
 13 14  2  0
 13 15  1  0
 11 16  1  0
 16 17  2  0
 17 18  1  0
 18 19  2  0
 19 20  1  0
 20 21  2  0
  9 22  1  0
 10  4  1  0
 21 16  1  0
 17  9  1  0
  1 23  1  0
  5 24  1  0
  5 25  1  0
  5 26  1  0
  6 27  1  0
  6 28  1  0
  7 29  1  0
  7 30  1  0
  8 31  1  0
  8 32  1  0
 10 33  1  0
 12 34  1  0
 15 35  1  0
 18 36  1  0
 19 37  1  0
 20 38  1  0
 21 39  1  0
 22 40  1  0
 22 41  1  0
 22 42  1  0
M  END
