
     RDKit          3D

 42 43  0  0  0  0  0  0  0  0999 V2000
   -3.3994    1.1139   -3.1437 Cl  0  0  0  0  0  0  0  0  0  0  0  0
   -2.4519   -0.1546   -2.3323 C   0  0  0  0  0  0  0  0  0  0  0  0
   -2.7260   -0.2026   -0.8323 C   0  0  0  0  0  0  0  0  0  0  0  0
   -1.9223   -1.2351   -0.2271 O   0  0  0  0  0  0  0  0  0  0  0  0
   -1.3901   -0.7461    1.0243 C   0  0  0  0  0  0  0  0  0  0  0  0
   -2.1549    0.5673    1.3165 C   0  0  0  0  0  0  0  0  0  0  0  0
   -2.3940    1.0902   -0.0914 C   0  0  0  0  0  0  0  0  0  0  0  0
   -3.4564    2.0403   -0.0869 O   0  0  0  0  0  0  0  0  0  0  0  0
   -3.4232    0.3590    1.9546 O   0  0  0  0  0  0  0  0  0  0  0  0
   -1.6279   -1.7633    2.1601 C   0  0  0  0  0  0  0  0  0  0  0  0
   -0.7908   -3.3303    1.9098 Cl  0  0  0  0  0  0  0  0  0  0  0  0
   -0.0044   -0.3701    0.9374 O   0  0  0  0  0  0  0  0  0  0  0  0
    0.7773   -1.0825   -0.0173 C   0  0  0  0  0  0  0  0  0  0  0  0
    0.8634   -0.3273   -1.2299 O   0  0  0  0  0  0  0  0  0  0  0  0
    1.5772    0.9153   -1.0978 C   0  0  0  0  0  0  0  0  0  0  0  0
    1.5522    1.6550   -2.4427 C   0  0  0  0  0  0  0  0  0  0  0  0
    2.3420    0.7381   -3.7564 Cl  0  0  0  0  0  0  0  0  0  0  0  0
    3.0000    0.7137   -0.5607 C   0  0  0  0  0  0  0  0  0  0  0  0
    2.9524   -0.0738    0.7478 C   0  0  0  0  0  0  0  0  0  0  0  0
    2.1835   -1.3780    0.5529 C   0  0  0  0  0  0  0  0  0  0  0  0
    2.1596   -2.0649    1.8139 O   0  0  0  0  0  0  0  0  0  0  0  0
    4.2979   -0.3493    1.1741 O   0  0  0  0  0  0  0  0  0  0  0  0
    3.6318    1.9750   -0.3232 O   0  0  0  0  0  0  0  0  0  0  0  0
   -2.6990   -1.1153   -2.7959 H   0  0  0  0  0  0  0  0  0  0  0  0
   -1.3948    0.0332   -2.5380 H   0  0  0  0  0  0  0  0  0  0  0  0
   -3.7781   -0.4737   -0.6750 H   0  0  0  0  0  0  0  0  0  0  0  0
   -1.5883    1.2772    1.9279 H   0  0  0  0  0  0  0  0  0  0  0  0
   -1.4864    1.5612   -0.4849 H   0  0  0  0  0  0  0  0  0  0  0  0
   -3.6494    2.2674   -1.0183 H   0  0  0  0  0  0  0  0  0  0  0  0
   -3.9632    1.1380    1.6993 H   0  0  0  0  0  0  0  0  0  0  0  0
   -1.2627   -1.3711    3.1139 H   0  0  0  0  0  0  0  0  0  0  0  0
   -2.6875   -2.0177    2.2503 H   0  0  0  0  0  0  0  0  0  0  0  0
    0.3188   -2.0434   -0.2673 H   0  0  0  0  0  0  0  0  0  0  0  0
    1.0230    1.5529   -0.3958 H   0  0  0  0  0  0  0  0  0  0  0  0
    2.0429    2.6302   -2.3749 H   0  0  0  0  0  0  0  0  0  0  0  0
    0.5173    1.8103   -2.7630 H   0  0  0  0  0  0  0  0  0  0  0  0
    3.6234    0.1681   -1.2785 H   0  0  0  0  0  0  0  0  0  0  0  0
    2.5089    0.5303    1.5489 H   0  0  0  0  0  0  0  0  0  0  0  0
    2.7367   -2.0167   -0.1468 H   0  0  0  0  0  0  0  0  0  0  0  0
    1.4861   -2.7706    1.7574 H   0  0  0  0  0  0  0  0  0  0  0  0
    4.2016   -1.0081    1.8927 H   0  0  0  0  0  0  0  0  0  0  0  0
    4.4546    1.7577    0.1625 H   0  0  0  0  0  0  0  0  0  0  0  0
  1  2  1  0
  2  3  1  0
  3  4  1  0
  4  5  1  0
  5  6  1  0
  6  7  1  0
  7  8  1  0
  6  9  1  0
  5 10  1  0
 10 11  1  0
  5 12  1  0
 12 13  1  0
 13 14  1  0
 14 15  1  0
 15 16  1  0
 16 17  1  0
 15 18  1  0
 18 19  1  0
 19 20  1  0
 20 21  1  0
 19 22  1  0
 18 23  1  0
  7  3  1  0
 20 13  1  0
  2 24  1  0
  2 25  1  0
  3 26  1  0
  6 27  1  0
  7 28  1  0
  8 29  1  0
  9 30  1  0
 10 31  1  0
 10 32  1  0
 13 33  1  0
 15 34  1  0
 16 35  1  0
 16 36  1  0
 18 37  1  0
 19 38  1  0
 20 39  1  0
 21 40  1  0
 22 41  1  0
 23 42  1  0
M  END
