
     RDKit          3D

 27 28  0  0  0  0  0  0  0  0999 V2000
   -2.4399    1.3559    1.4077 O   0  0  0  0  0  0  0  0  0  0  0  0
   -2.3715    1.0590    0.0900 C   0  0  0  0  0  0  0  0  0  0  0  0
   -2.1805    1.9483   -0.7255 O   0  0  0  0  0  0  0  0  0  0  0  0
   -2.5903   -0.4248   -0.2253 C   0  0  0  0  0  0  0  0  0  0  0  0
   -1.4448   -0.9713   -1.0956 C   0  0  0  0  0  0  0  0  0  0  0  0
   -0.1019   -1.0342   -0.4196 C   0  0  0  0  0  0  0  0  0  0  0  0
    0.3781   -2.0881    0.3354 C   0  0  0  0  0  0  0  0  0  0  0  0
    1.6329   -1.7723    0.7765 N   0  0  0  0  0  0  0  0  0  0  0  0
    1.9979   -0.5298    0.3151 C   0  0  0  0  0  0  0  0  0  0  0  0
    0.9344   -0.0444   -0.4487 C   0  0  0  0  0  0  0  0  0  0  0  0
    1.0702    1.2218   -1.0565 C   0  0  0  0  0  0  0  0  0  0  0  0
    2.2480    1.9570   -0.8725 C   0  0  0  0  0  0  0  0  0  0  0  0
    3.2837    1.4432   -0.0986 C   0  0  0  0  0  0  0  0  0  0  0  0
    3.1842    0.1899    0.5106 C   0  0  0  0  0  0  0  0  0  0  0  0
    4.7221    2.3683    0.1133 Cl  0  0  0  0  0  0  0  0  0  0  0  0
   -2.8178   -1.2253    1.0100 N   0  0  0  0  0  0  0  0  0  0  0  0
   -2.2585    2.3187    1.4396 H   0  0  0  0  0  0  0  0  0  0  0  0
   -3.5238   -0.4727   -0.7989 H   0  0  0  0  0  0  0  0  0  0  0  0
   -1.7094   -1.9818   -1.4357 H   0  0  0  0  0  0  0  0  0  0  0  0
   -1.3553   -0.3648   -2.0061 H   0  0  0  0  0  0  0  0  0  0  0  0
   -0.0752   -3.0366    0.5949 H   0  0  0  0  0  0  0  0  0  0  0  0
    2.2158   -2.3670    1.3497 H   0  0  0  0  0  0  0  0  0  0  0  0
    0.2702    1.6324   -1.6671 H   0  0  0  0  0  0  0  0  0  0  0  0
    2.3442    2.9323   -1.3426 H   0  0  0  0  0  0  0  0  0  0  0  0
    3.9957   -0.2105    1.1087 H   0  0  0  0  0  0  0  0  0  0  0  0
   -1.9446   -1.2103    1.5430 H   0  0  0  0  0  0  0  0  0  0  0  0
   -3.4641   -0.6930    1.5982 H   0  0  0  0  0  0  0  0  0  0  0  0
  1  2  1  0
  2  3  2  0
  2  4  1  0
  4  5  1  0
  5  6  1  0
  6  7  2  0
  7  8  1  0
  8  9  1  0
  9 10  2  0
 10 11  1  0
 11 12  2  0
 12 13  1  0
 13 14  2  0
 13 15  1  0
  4 16  1  0
 10  6  1  0
 14  9  1  0
  1 17  1  0
  4 18  1  0
  5 19  1  0
  5 20  1  0
  7 21  1  0
  8 22  1  0
 11 23  1  0
 12 24  1  0
 14 25  1  0
 16 26  1  0
 16 27  1  0
M  END
