
     RDKit          3D

 52 55  0  0  0  0  0  0  0  0999 V2000
   -4.8148    2.8533   -1.9274 O   0  0  0  0  0  0  0  0  0  0  0  0
   -4.4601    1.4750   -1.9650 C   0  0  0  0  0  0  0  0  0  0  0  0
   -4.2251    0.9388   -0.5501 C   0  0  0  0  0  0  0  0  0  0  0  0
   -3.7145   -0.4016   -0.6599 O   0  0  0  0  0  0  0  0  0  0  0  0
   -3.3581   -0.9769    0.6065 C   0  0  0  0  0  0  0  0  0  0  0  0
   -2.3192   -0.2538    1.2730 O   0  0  0  0  0  0  0  0  0  0  0  0
   -1.0425   -0.3956    0.8062 C   0  0  0  0  0  0  0  0  0  0  0  0
   -0.6687   -0.9855   -0.3999 C   0  0  0  0  0  0  0  0  0  0  0  0
    0.6819   -1.0609   -0.7597 C   0  0  0  0  0  0  0  0  0  0  0  0
    1.6806   -0.5378    0.0752 C   0  0  0  0  0  0  0  0  0  0  0  0
    1.2942    0.0577    1.2834 C   0  0  0  0  0  0  0  0  0  0  0  0
   -0.0549    0.1319    1.6394 C   0  0  0  0  0  0  0  0  0  0  0  0
    3.1416   -0.6628   -0.3221 C   0  0  0  0  0  0  0  0  0  0  0  0
    3.7300   -1.9535    0.2326 C   0  0  0  0  0  0  0  0  0  0  0  0
    5.1604   -2.0457   -0.2154 C   0  0  0  0  0  0  0  0  0  0  0  0
    5.7146   -3.1172   -0.4392 O   0  0  0  0  0  0  0  0  0  0  0  0
    5.8974   -0.7692   -0.3160 C   0  0  0  0  0  0  0  0  0  0  0  0
    5.2062    0.4255   -0.1025 C   0  0  0  0  0  0  0  0  0  0  0  0
    3.8622    0.4848    0.1595 O   0  0  0  0  0  0  0  0  0  0  0  0
    5.8907    1.6415   -0.1266 C   0  0  0  0  0  0  0  0  0  0  0  0
    7.2575    1.6478   -0.3935 C   0  0  0  0  0  0  0  0  0  0  0  0
    7.9489    0.4622   -0.6290 C   0  0  0  0  0  0  0  0  0  0  0  0
    7.2688   -0.7561   -0.5871 C   0  0  0  0  0  0  0  0  0  0  0  0
    7.9664    2.8123   -0.4332 O   0  0  0  0  0  0  0  0  0  0  0  0
   -4.5871   -1.0366    1.5367 C   0  0  0  0  0  0  0  0  0  0  0  0
   -5.2328    0.3520    1.6728 C   0  0  0  0  0  0  0  0  0  0  0  0
   -5.5099    0.9670    0.2952 C   0  0  0  0  0  0  0  0  0  0  0  0
   -6.5482    0.1916   -0.3390 O   0  0  0  0  0  0  0  0  0  0  0  0
   -6.4786    0.2371    2.3850 O   0  0  0  0  0  0  0  0  0  0  0  0
   -5.5805   -1.9562    1.0350 O   0  0  0  0  0  0  0  0  0  0  0  0
   -4.9823    3.1205   -2.8476 H   0  0  0  0  0  0  0  0  0  0  0  0
   -3.5463    1.3694   -2.5606 H   0  0  0  0  0  0  0  0  0  0  0  0
   -5.2469    0.9137   -2.4804 H   0  0  0  0  0  0  0  0  0  0  0  0
   -3.4688    1.5731   -0.0698 H   0  0  0  0  0  0  0  0  0  0  0  0
   -3.0426   -2.0112    0.4177 H   0  0  0  0  0  0  0  0  0  0  0  0
   -1.4020   -1.3868   -1.0924 H   0  0  0  0  0  0  0  0  0  0  0  0
    0.9452   -1.5300   -1.7057 H   0  0  0  0  0  0  0  0  0  0  0  0
    2.0403    0.4778    1.9562 H   0  0  0  0  0  0  0  0  0  0  0  0
   -0.3347    0.6050    2.5780 H   0  0  0  0  0  0  0  0  0  0  0  0
    3.2000   -0.6453   -1.4208 H   0  0  0  0  0  0  0  0  0  0  0  0
    3.7172   -1.9775    1.3285 H   0  0  0  0  0  0  0  0  0  0  0  0
    3.1835   -2.8234   -0.1485 H   0  0  0  0  0  0  0  0  0  0  0  0
    5.3468    2.5636    0.0524 H   0  0  0  0  0  0  0  0  0  0  0  0
    9.0160    0.4858   -0.8341 H   0  0  0  0  0  0  0  0  0  0  0  0
    7.8088   -1.6864   -0.7528 H   0  0  0  0  0  0  0  0  0  0  0  0
    7.3714    3.5487   -0.2150 H   0  0  0  0  0  0  0  0  0  0  0  0
   -4.3022   -1.4014    2.5303 H   0  0  0  0  0  0  0  0  0  0  0  0
   -4.5783    1.0174    2.2473 H   0  0  0  0  0  0  0  0  0  0  0  0
   -5.8938    1.9879    0.4014 H   0  0  0  0  0  0  0  0  0  0  0  0
   -7.3397    0.3361    0.2191 H   0  0  0  0  0  0  0  0  0  0  0  0
   -6.7411   -0.7050    2.3132 H   0  0  0  0  0  0  0  0  0  0  0  0
   -5.8570   -1.6010    0.1589 H   0  0  0  0  0  0  0  0  0  0  0  0
  1  2  1  0
  2  3  1  0
  3  4  1  0
  4  5  1  0
  5  6  1  0
  6  7  1  0
  7  8  2  0
  8  9  1  0
  9 10  2  0
 10 11  1  0
 11 12  2  0
 10 13  1  0
 13 14  1  0
 14 15  1  0
 15 16  2  0
 15 17  1  0
 17 18  2  0
 18 19  1  0
 18 20  1  0
 20 21  2  0
 21 22  1  0
 22 23  2  0
 21 24  1  0
  5 25  1  0
 25 26  1  0
 26 27  1  0
 27 28  1  0
 26 29  1  0
 25 30  1  0
 27  3  1  0
 12  7  1  0
 19 13  1  0
 23 17  1  0
  1 31  1  0
  2 32  1  0
  2 33  1  0
  3 34  1  0
  5 35  1  0
  8 36  1  0
  9 37  1  0
 11 38  1  0
 12 39  1  0
 13 40  1  0
 14 41  1  0
 14 42  1  0
 20 43  1  0
 22 44  1  0
 23 45  1  0
 24 46  1  0
 25 47  1  0
 26 48  1  0
 27 49  1  0
 28 50  1  0
 29 51  1  0
 30 52  1  0
M  END
