
     RDKit          3D

 30 29  0  0  0  0  0  0  0  0999 V2000
    2.3199    1.5559   -2.6450 O   0  0  0  0  0  0  0  0  0  0  0  0
    1.3196    0.9953   -2.1912 C   0  0  0  0  0  0  0  0  0  0  0  0
    1.3361    0.1598   -0.9162 C   0  0  0  0  0  0  0  0  0  0  0  0
    0.1043    0.4164   -0.0191 C   0  0  0  0  0  0  0  0  0  0  0  0
   -1.0968   -0.4702   -0.4235 C   0  0  0  0  0  0  0  0  0  0  0  0
   -2.2406   -0.3828    0.6036 C   0  0  0  0  0  0  0  0  0  0  0  0
   -3.4469   -1.2412    0.2113 C   0  0  0  0  0  0  0  0  0  0  0  0
   -4.4590   -1.0518    1.2051 O   0  0  0  0  0  0  0  0  0  0  0  0
   -2.6799    0.9869    0.7136 O   0  0  0  0  0  0  0  0  0  0  0  0
   -1.5812   -0.0412   -1.7034 O   0  0  0  0  0  0  0  0  0  0  0  0
   -0.2605    1.8069   -0.0619 O   0  0  0  0  0  0  0  0  0  0  0  0
    2.5914    0.4603   -0.2226 N   0  0  0  0  0  0  0  0  0  0  0  0
    3.0842   -0.3637    0.7541 C   0  0  0  0  0  0  0  0  0  0  0  0
    2.4733   -1.3468    1.1646 O   0  0  0  0  0  0  0  0  0  0  0  0
    4.4338    0.0299    1.2877 C   0  0  0  0  0  0  0  0  0  0  0  0
    0.3718    1.0188   -2.7506 H   0  0  0  0  0  0  0  0  0  0  0  0
    1.3784   -0.8962   -1.2079 H   0  0  0  0  0  0  0  0  0  0  0  0
    0.3554    0.1900    1.0236 H   0  0  0  0  0  0  0  0  0  0  0  0
   -0.7785   -1.5145   -0.5177 H   0  0  0  0  0  0  0  0  0  0  0  0
   -1.8850   -0.6777    1.5976 H   0  0  0  0  0  0  0  0  0  0  0  0
   -3.8709   -0.9248   -0.7466 H   0  0  0  0  0  0  0  0  0  0  0  0
   -3.1829   -2.3020    0.1687 H   0  0  0  0  0  0  0  0  0  0  0  0
   -5.2073   -1.6236    0.9545 H   0  0  0  0  0  0  0  0  0  0  0  0
   -3.5276    0.9253    1.2069 H   0  0  0  0  0  0  0  0  0  0  0  0
   -1.9348    0.8612   -1.5526 H   0  0  0  0  0  0  0  0  0  0  0  0
   -1.1023    1.8893    0.4394 H   0  0  0  0  0  0  0  0  0  0  0  0
    3.1822    1.1712   -0.6467 H   0  0  0  0  0  0  0  0  0  0  0  0
    4.7627    0.9926    0.8865 H   0  0  0  0  0  0  0  0  0  0  0  0
    4.3770    0.1117    2.3765 H   0  0  0  0  0  0  0  0  0  0  0  0
    5.1641   -0.7351    1.0113 H   0  0  0  0  0  0  0  0  0  0  0  0
  1  2  2  0
  2  3  1  0
  3  4  1  0
  4  5  1  0
  5  6  1  0
  6  7  1  0
  7  8  1  0
  6  9  1  0
  5 10  1  0
  4 11  1  0
  3 12  1  0
 12 13  1  0
 13 14  2  0
 13 15  1  0
  2 16  1  0
  3 17  1  0
  4 18  1  0
  5 19  1  0
  6 20  1  0
  7 21  1  0
  7 22  1  0
  8 23  1  0
  9 24  1  0
 10 25  1  0
 11 26  1  0
 12 27  1  0
 15 28  1  0
 15 29  1  0
 15 30  1  0
M  END
