
     RDKit          3D

120126  0  0  0  0  0  0  0  0999 V2000
   -0.1840   -3.1596   -1.0625 O   0  0  0  0  0  0  0  0  0  0  0  0
    0.1824   -1.9870   -1.0712 C   0  0  0  0  0  0  0  0  0  0  0  0
   -0.2414   -0.9384   -0.0152 C   0  0  0  0  0  0  0  0  0  0  0  0
    0.5207    0.3660   -0.3374 C   0  0  0  0  0  0  0  0  0  0  0  0
    2.0040    0.3370   -0.0030 C   0  0  0  0  0  0  0  0  0  0  0  0
    2.2697   -0.0856    1.4433 C   0  0  0  0  0  0  0  0  0  0  0  0
    1.6670   -1.4875    1.7506 C   0  0  0  0  0  0  0  0  0  0  0  0
    0.1179   -1.5201    1.4030 C   0  0  0  0  0  0  0  0  0  0  0  0
   -0.7456   -0.8894    2.5195 C   0  0  0  0  0  0  0  0  0  0  0  0
   -2.2462   -0.9781    2.2360 C   0  0  0  0  0  0  0  0  0  0  0  0
   -2.6773   -0.2284    0.9563 C   0  0  0  0  0  0  0  0  0  0  0  0
   -1.8102   -0.7937   -0.2296 C   0  0  0  0  0  0  0  0  0  0  0  0
   -2.1880   -0.1057   -1.5580 C   0  0  0  0  0  0  0  0  0  0  0  0
   -3.6680   -0.2906   -1.8913 C   0  0  0  0  0  0  0  0  0  0  0  0
   -4.6007    0.2068   -0.7685 C   0  0  0  0  0  0  0  0  0  0  0  0
   -4.2549   -0.4611    0.6194 C   0  0  0  0  0  0  0  0  0  0  0  0
   -4.6058   -1.9860    0.5739 C   0  0  0  0  0  0  0  0  0  0  0  0
   -5.1871    0.1632    1.7130 C   0  0  0  0  0  0  0  0  0  0  0  0
   -6.6862    0.1467    1.3637 C   0  0  0  0  0  0  0  0  0  0  0  0
   -7.0094    0.7683   -0.0167 C   0  0  0  0  0  0  0  0  0  0  0  0
   -6.1051    0.0963   -1.0589 C   0  0  0  0  0  0  0  0  0  0  0  0
   -6.6099   -0.5977   -2.0998 C   0  0  0  0  0  0  0  0  0  0  0  0
   -8.0793   -0.9057   -2.3193 C   0  0  0  0  0  0  0  0  0  0  0  0
   -8.2267   -2.3564   -2.8092 C   0  0  0  0  0  0  0  0  0  0  0  0
   -8.8489   -0.7436   -0.9937 C   0  0  0  0  0  0  0  0  0  0  0  0
   -8.5245    0.5899   -0.3296 C   0  0  0  0  0  0  0  0  0  0  0  0
   -8.6218    0.0082   -3.4293 C   0  0  0  0  0  0  0  0  0  0  0  0
   -7.9733    0.6401   -4.2491 O   0  0  0  0  0  0  0  0  0  0  0  0
   -9.9694    0.0271   -3.5038 O   0  0  0  0  0  0  0  0  0  0  0  0
   -6.7668    2.2992    0.0240 C   0  0  0  0  0  0  0  0  0  0  0  0
   -2.4167    1.2867    1.2071 C   0  0  0  0  0  0  0  0  0  0  0  0
    1.9223   -1.8102    3.2485 C   0  0  0  0  0  0  0  0  0  0  0  0
    2.4263   -2.6002    0.9758 C   0  0  0  0  0  0  0  0  0  0  0  0
    3.6808   -0.1282    1.6739 O   0  0  0  0  0  0  0  0  0  0  0  0
    4.3003    1.1478    1.8490 C   0  0  0  0  0  0  0  0  0  0  0  0
    4.6240    1.2791    3.2314 O   0  0  0  0  0  0  0  0  0  0  0  0
    5.3207    2.4868    3.5366 C   0  0  0  0  0  0  0  0  0  0  0  0
    5.5889    2.5524    5.0330 C   0  0  0  0  0  0  0  0  0  0  0  0
    5.4928    3.5486    5.7343 O   0  0  0  0  0  0  0  0  0  0  0  0
    6.0194    1.3923    5.5690 O   0  0  0  0  0  0  0  0  0  0  0  0
    6.6562    2.5568    2.7926 C   0  0  0  0  0  0  0  0  0  0  0  0
    6.4133    2.3926    1.2906 C   0  0  0  0  0  0  0  0  0  0  0  0
    5.5604    1.1687    0.9610 C   0  0  0  0  0  0  0  0  0  0  0  0
    5.1453    1.2791   -0.4134 O   0  0  0  0  0  0  0  0  0  0  0  0
    6.0012    0.5991   -1.3266 C   0  0  0  0  0  0  0  0  0  0  0  0
    5.3320   -0.5729   -1.7916 O   0  0  0  0  0  0  0  0  0  0  0  0
    6.1462   -1.4192   -2.6104 C   0  0  0  0  0  0  0  0  0  0  0  0
    6.6209   -2.6076   -1.7834 C   0  0  0  0  0  0  0  0  0  0  0  0
    6.3739   -3.7859   -1.9904 O   0  0  0  0  0  0  0  0  0  0  0  0
    7.3750   -2.2599   -0.7178 O   0  0  0  0  0  0  0  0  0  0  0  0
    7.3518   -0.7185   -3.2592 C   0  0  0  0  0  0  0  0  0  0  0  0
    7.0259    0.7310   -3.6415 C   0  0  0  0  0  0  0  0  0  0  0  0
    6.3098    1.5176   -2.5302 C   0  0  0  0  0  0  0  0  0  0  0  0
    5.1103    2.0969   -3.0907 O   0  0  0  0  0  0  0  0  0  0  0  0
    6.2333    0.7149   -4.8500 O   0  0  0  0  0  0  0  0  0  0  0  0
    7.7775   -1.4317   -4.4268 O   0  0  0  0  0  0  0  0  0  0  0  0
    7.6872    2.3195    0.6180 O   0  0  0  0  0  0  0  0  0  0  0  0
    7.3094    3.8233    2.9549 O   0  0  0  0  0  0  0  0  0  0  0  0
    0.8238   -1.6227   -1.8929 H   0  0  0  0  0  0  0  0  0  0  0  0
    0.0930    1.2142    0.1933 H   0  0  0  0  0  0  0  0  0  0  0  0
    0.4304    0.6128   -1.4029 H   0  0  0  0  0  0  0  0  0  0  0  0
    2.4129    1.3379   -0.1864 H   0  0  0  0  0  0  0  0  0  0  0  0
    2.5459   -0.3120   -0.7020 H   0  0  0  0  0  0  0  0  0  0  0  0
    1.8228    0.6473    2.1281 H   0  0  0  0  0  0  0  0  0  0  0  0
   -0.1699   -2.5828    1.4046 H   0  0  0  0  0  0  0  0  0  0  0  0
   -0.4398    0.1434    2.7141 H   0  0  0  0  0  0  0  0  0  0  0  0
   -0.5874   -1.4317    3.4586 H   0  0  0  0  0  0  0  0  0  0  0  0
   -2.4959   -2.0431    2.1645 H   0  0  0  0  0  0  0  0  0  0  0  0
   -2.7873   -0.5904    3.1079 H   0  0  0  0  0  0  0  0  0  0  0  0
   -2.1388   -1.8329   -0.3465 H   0  0  0  0  0  0  0  0  0  0  0  0
   -1.9525    0.9646   -1.5260 H   0  0  0  0  0  0  0  0  0  0  0  0
   -1.6046   -0.5245   -2.3862 H   0  0  0  0  0  0  0  0  0  0  0  0
   -3.8819    0.2569   -2.8175 H   0  0  0  0  0  0  0  0  0  0  0  0
   -3.8434   -1.3519   -2.1061 H   0  0  0  0  0  0  0  0  0  0  0  0
   -4.3990    1.2814   -0.6992 H   0  0  0  0  0  0  0  0  0  0  0  0
   -3.9914   -2.5523   -0.1277 H   0  0  0  0  0  0  0  0  0  0  0  0
   -4.5007   -2.4491    1.5593 H   0  0  0  0  0  0  0  0  0  0  0  0
   -5.6410   -2.1660    0.2684 H   0  0  0  0  0  0  0  0  0  0  0  0
   -5.0509   -0.3607    2.6667 H   0  0  0  0  0  0  0  0  0  0  0  0
   -4.9191    1.2049    1.9037 H   0  0  0  0  0  0  0  0  0  0  0  0
   -7.2287    0.6884    2.1499 H   0  0  0  0  0  0  0  0  0  0  0  0
   -7.0554   -0.8849    1.4110 H   0  0  0  0  0  0  0  0  0  0  0  0
   -5.9439   -1.0341   -2.8409 H   0  0  0  0  0  0  0  0  0  0  0  0
   -9.2821   -2.6349   -2.9163 H   0  0  0  0  0  0  0  0  0  0  0  0
   -7.7567   -2.4976   -3.7919 H   0  0  0  0  0  0  0  0  0  0  0  0
   -7.7625   -3.0661   -2.1132 H   0  0  0  0  0  0  0  0  0  0  0  0
   -8.5944   -1.5601   -0.3040 H   0  0  0  0  0  0  0  0  0  0  0  0
   -9.9320   -0.8100   -1.1532 H   0  0  0  0  0  0  0  0  0  0  0  0
   -8.8728    1.3941   -0.9918 H   0  0  0  0  0  0  0  0  0  0  0  0
   -9.1137    0.6890    0.5910 H   0  0  0  0  0  0  0  0  0  0  0  0
  -10.1427    0.6169   -4.2668 H   0  0  0  0  0  0  0  0  0  0  0  0
   -7.4879    2.7894    0.6908 H   0  0  0  0  0  0  0  0  0  0  0  0
   -6.8849    2.7424   -0.9726 H   0  0  0  0  0  0  0  0  0  0  0  0
   -5.7702    2.5724    0.3829 H   0  0  0  0  0  0  0  0  0  0  0  0
   -2.9471    1.6450    2.0955 H   0  0  0  0  0  0  0  0  0  0  0  0
   -2.7113    1.9189    0.3677 H   0  0  0  0  0  0  0  0  0  0  0  0
   -1.3738    1.5134    1.4157 H   0  0  0  0  0  0  0  0  0  0  0  0
    1.4275   -2.7439    3.5371 H   0  0  0  0  0  0  0  0  0  0  0  0
    1.5658   -1.0082    3.9055 H   0  0  0  0  0  0  0  0  0  0  0  0
    2.9908   -1.9310    3.4598 H   0  0  0  0  0  0  0  0  0  0  0  0
    1.9525   -3.5764    1.1364 H   0  0  0  0  0  0  0  0  0  0  0  0
    2.4735   -2.4235   -0.0994 H   0  0  0  0  0  0  0  0  0  0  0  0
    3.4646   -2.6895    1.3184 H   0  0  0  0  0  0  0  0  0  0  0  0
    3.6207    1.9614    1.5648 H   0  0  0  0  0  0  0  0  0  0  0  0
    4.6779    3.3422    3.2923 H   0  0  0  0  0  0  0  0  0  0  0  0
    6.0722    1.5641    6.5316 H   0  0  0  0  0  0  0  0  0  0  0  0
    7.3485    1.7770    3.1343 H   0  0  0  0  0  0  0  0  0  0  0  0
    5.9335    3.2937    0.8883 H   0  0  0  0  0  0  0  0  0  0  0  0
    6.1241    0.2392    1.1145 H   0  0  0  0  0  0  0  0  0  0  0  0
    6.9413    0.3145   -0.8410 H   0  0  0  0  0  0  0  0  0  0  0  0
    5.4904   -1.8297   -3.3872 H   0  0  0  0  0  0  0  0  0  0  0  0
    7.5429   -3.1183   -0.2755 H   0  0  0  0  0  0  0  0  0  0  0  0
    8.2059   -0.7098   -2.5710 H   0  0  0  0  0  0  0  0  0  0  0  0
    7.9567    1.2426   -3.9137 H   0  0  0  0  0  0  0  0  0  0  0  0
    6.9260    2.3532   -2.1822 H   0  0  0  0  0  0  0  0  0  0  0  0
    5.4011    2.6951   -3.8054 H   0  0  0  0  0  0  0  0  0  0  0  0
    5.2965    0.7020   -4.5538 H   0  0  0  0  0  0  0  0  0  0  0  0
    7.4197   -0.9378   -5.1985 H   0  0  0  0  0  0  0  0  0  0  0  0
    8.1732    3.1132    0.9194 H   0  0  0  0  0  0  0  0  0  0  0  0
    7.8097    3.8171    3.7950 H   0  0  0  0  0  0  0  0  0  0  0  0
  1  2  2  0
  2  3  1  0
  3  4  1  0
  4  5  1  0
  5  6  1  0
  6  7  1  0
  7  8  1  0
  8  9  1  0
  9 10  1  0
 10 11  1  0
 11 12  1  0
 12 13  1  0
 13 14  1  0
 14 15  1  0
 15 16  1  0
 16 17  1  0
 16 18  1  0
 18 19  1  0
 19 20  1  0
 20 21  1  0
 21 22  2  0
 22 23  1  0
 23 24  1  0
 23 25  1  0
 25 26  1  0
 23 27  1  0
 27 28  2  0
 27 29  1  0
 20 30  1  0
 11 31  1  0
  7 32  1  0
  7 33  1  0
  6 34  1  0
 34 35  1  0
 35 36  1  0
 36 37  1  0
 37 38  1  0
 38 39  2  0
 38 40  1  0
 37 41  1  0
 41 42  1  0
 42 43  1  0
 43 44  1  0
 44 45  1  0
 45 46  1  0
 46 47  1  0
 47 48  1  0
 48 49  2  0
 48 50  1  0
 47 51  1  0
 51 52  1  0
 52 53  1  0
 53 54  1  0
 52 55  1  0
 51 56  1  0
 42 57  1  0
 41 58  1  0
  8  3  1  0
 16 11  1  0
 26 20  1  0
 43 35  1  0
 53 45  1  0
 12  3  1  0
 21 15  1  0
  2 59  1  0
  4 60  1  0
  4 61  1  0
  5 62  1  0
  5 63  1  0
  6 64  1  0
  8 65  1  0
  9 66  1  0
  9 67  1  0
 10 68  1  0
 10 69  1  0
 12 70  1  0
 13 71  1  0
 13 72  1  0
 14 73  1  0
 14 74  1  0
 15 75  1  0
 17 76  1  0
 17 77  1  0
 17 78  1  0
 18 79  1  0
 18 80  1  0
 19 81  1  0
 19 82  1  0
 22 83  1  0
 24 84  1  0
 24 85  1  0
 24 86  1  0
 25 87  1  0
 25 88  1  0
 26 89  1  0
 26 90  1  0
 29 91  1  0
 30 92  1  0
 30 93  1  0
 30 94  1  0
 31 95  1  0
 31 96  1  0
 31 97  1  0
 32 98  1  0
 32 99  1  0
 32100  1  0
 33101  1  0
 33102  1  0
 33103  1  0
 35104  1  0
 37105  1  0
 40106  1  0
 41107  1  0
 42108  1  0
 43109  1  0
 45110  1  0
 47111  1  0
 50112  1  0
 51113  1  0
 52114  1  0
 53115  1  0
 54116  1  0
 55117  1  0
 56118  1  0
 57119  1  0
 58120  1  0
M  END
