
     RDKit          3D

120126  0  0  0  0  0  0  0  0999 V2000
    1.5725   -1.0237    1.5848 O   0  0  0  0  0  0  0  0  0  0  0  0
    1.4212   -0.7420    0.3987 C   0  0  0  0  0  0  0  0  0  0  0  0
    0.6517    0.4773   -0.1014 C   0  0  0  0  0  0  0  0  0  0  0  0
   -0.5071    0.7409    0.9161 C   0  0  0  0  0  0  0  0  0  0  0  0
   -1.5990   -0.3285    0.8997 C   0  0  0  0  0  0  0  0  0  0  0  0
   -2.2070   -0.5346   -0.4909 C   0  0  0  0  0  0  0  0  0  0  0  0
   -1.1218   -0.8606   -1.5671 C   0  0  0  0  0  0  0  0  0  0  0  0
   -0.0161    0.2649   -1.5013 C   0  0  0  0  0  0  0  0  0  0  0  0
    1.0259    0.2160   -2.6260 C   0  0  0  0  0  0  0  0  0  0  0  0
    1.8201    1.5192   -2.7005 C   0  0  0  0  0  0  0  0  0  0  0  0
    2.5477    1.9529   -1.3999 C   0  0  0  0  0  0  0  0  0  0  0  0
    1.6079    1.7351   -0.1466 C   0  0  0  0  0  0  0  0  0  0  0  0
    2.3593    2.0396    1.1655 C   0  0  0  0  0  0  0  0  0  0  0  0
    3.7737    1.5730    1.2227 C   0  0  0  0  0  0  0  0  0  0  0  0
    4.5474    1.2400    0.1750 C   0  0  0  0  0  0  0  0  0  0  0  0
    4.0479    1.3132   -1.2806 C   0  0  0  0  0  0  0  0  0  0  0  0
    5.0322    2.1868   -2.1300 C   0  0  0  0  0  0  0  0  0  0  0  0
    4.1735   -0.1335   -1.8443 C   0  0  0  0  0  0  0  0  0  0  0  0
    5.5454   -0.8105   -1.6498 C   0  0  0  0  0  0  0  0  0  0  0  0
    6.0732   -0.7568   -0.1927 C   0  0  0  0  0  0  0  0  0  0  0  0
    5.9787    0.7007    0.3442 C   0  0  0  0  0  0  0  0  0  0  0  0
    6.6195    0.8271    1.7464 C   0  0  0  0  0  0  0  0  0  0  0  0
    8.1011    0.3711    1.7693 C   0  0  0  0  0  0  0  0  0  0  0  0
    8.6032    0.3614    3.2231 C   0  0  0  0  0  0  0  0  0  0  0  0
    8.2339   -1.0480    1.1742 C   0  0  0  0  0  0  0  0  0  0  0  0
    7.5590   -1.1949   -0.1903 C   0  0  0  0  0  0  0  0  0  0  0  0
    8.9693    1.3897    1.0278 C   0  0  0  0  0  0  0  0  0  0  0  0
    8.7101    2.5669    0.8388 O   0  0  0  0  0  0  0  0  0  0  0  0
   10.1560    0.9032    0.6177 O   0  0  0  0  0  0  0  0  0  0  0  0
    5.2527   -1.7552    0.6623 C   0  0  0  0  0  0  0  0  0  0  0  0
    2.6766    3.5242   -1.5128 C   0  0  0  0  0  0  0  0  0  0  0  0
   -0.5759   -2.2918   -1.3994 C   0  0  0  0  0  0  0  0  0  0  0  0
   -1.8156   -0.8247   -2.9532 C   0  0  0  0  0  0  0  0  0  0  0  0
   -3.1731   -1.5962   -0.3918 O   0  0  0  0  0  0  0  0  0  0  0  0
   -4.5054   -1.1040   -0.1574 C   0  0  0  0  0  0  0  0  0  0  0  0
   -5.1868   -0.9513   -1.4004 O   0  0  0  0  0  0  0  0  0  0  0  0
   -5.3918   -2.1821   -2.1068 C   0  0  0  0  0  0  0  0  0  0  0  0
   -6.1830   -1.8706   -3.3691 C   0  0  0  0  0  0  0  0  0  0  0  0
   -7.0402   -1.0120   -3.5216 O   0  0  0  0  0  0  0  0  0  0  0  0
   -5.8242   -2.6433   -4.4168 O   0  0  0  0  0  0  0  0  0  0  0  0
   -6.1560   -3.2133   -1.2708 C   0  0  0  0  0  0  0  0  0  0  0  0
   -5.4634   -3.4083    0.0875 C   0  0  0  0  0  0  0  0  0  0  0  0
   -5.2628   -2.0619    0.7966 C   0  0  0  0  0  0  0  0  0  0  0  0
   -6.5760   -1.6105    1.1714 O   0  0  0  0  0  0  0  0  0  0  0  0
   -6.6117   -0.5008    2.0775 C   0  0  0  0  0  0  0  0  0  0  0  0
   -6.3017    0.6892    1.3623 O   0  0  0  0  0  0  0  0  0  0  0  0
   -7.0573    1.8493    1.7198 C   0  0  0  0  0  0  0  0  0  0  0  0
   -6.2955    3.1040    1.3140 C   0  0  0  0  0  0  0  0  0  0  0  0
   -5.9667    4.0238    2.0509 O   0  0  0  0  0  0  0  0  0  0  0  0
   -5.9966    3.1453   -0.0007 O   0  0  0  0  0  0  0  0  0  0  0  0
   -7.3778    1.8973    3.2212 C   0  0  0  0  0  0  0  0  0  0  0  0
   -8.2473    0.6934    3.6101 C   0  0  0  0  0  0  0  0  0  0  0  0
   -8.0369   -0.4974    2.6699 C   0  0  0  0  0  0  0  0  0  0  0  0
   -9.0181   -0.4127    1.6045 O   0  0  0  0  0  0  0  0  0  0  0  0
   -9.6347    1.0658    3.5997 O   0  0  0  0  0  0  0  0  0  0  0  0
   -6.1552    1.8167    3.9810 O   0  0  0  0  0  0  0  0  0  0  0  0
   -4.2281   -4.1208   -0.1147 O   0  0  0  0  0  0  0  0  0  0  0  0
   -6.2111   -4.4850   -1.9325 O   0  0  0  0  0  0  0  0  0  0  0  0
    1.8635   -1.3921   -0.3674 H   0  0  0  0  0  0  0  0  0  0  0  0
   -0.1324    0.8161    1.9425 H   0  0  0  0  0  0  0  0  0  0  0  0
   -0.9782    1.7088    0.6939 H   0  0  0  0  0  0  0  0  0  0  0  0
   -1.2144   -1.2788    1.2897 H   0  0  0  0  0  0  0  0  0  0  0  0
   -2.3902   -0.0388    1.6033 H   0  0  0  0  0  0  0  0  0  0  0  0
   -2.7030    0.3965   -0.7991 H   0  0  0  0  0  0  0  0  0  0  0  0
   -0.5762    1.1974   -1.6915 H   0  0  0  0  0  0  0  0  0  0  0  0
    0.5382    0.1075   -3.6006 H   0  0  0  0  0  0  0  0  0  0  0  0
    1.6735   -0.6548   -2.5263 H   0  0  0  0  0  0  0  0  0  0  0  0
    1.1022    2.3028   -2.9845 H   0  0  0  0  0  0  0  0  0  0  0  0
    2.5209    1.4727   -3.5399 H   0  0  0  0  0  0  0  0  0  0  0  0
    0.8696    2.5524   -0.2110 H   0  0  0  0  0  0  0  0  0  0  0  0
    1.8289    1.6301    2.0286 H   0  0  0  0  0  0  0  0  0  0  0  0
    2.3706    3.1244    1.3305 H   0  0  0  0  0  0  0  0  0  0  0  0
    4.1645    1.5028    2.2352 H   0  0  0  0  0  0  0  0  0  0  0  0
    6.0185    1.7358   -2.2703 H   0  0  0  0  0  0  0  0  0  0  0  0
    4.6456    2.3488   -3.1418 H   0  0  0  0  0  0  0  0  0  0  0  0
    5.2212    3.1607   -1.6652 H   0  0  0  0  0  0  0  0  0  0  0  0
    3.9626   -0.1451   -2.9196 H   0  0  0  0  0  0  0  0  0  0  0  0
    3.4415   -0.7808   -1.3746 H   0  0  0  0  0  0  0  0  0  0  0  0
    6.2742   -0.3515   -2.3296 H   0  0  0  0  0  0  0  0  0  0  0  0
    5.4685   -1.8550   -1.9790 H   0  0  0  0  0  0  0  0  0  0  0  0
    6.6106    1.3313   -0.2945 H   0  0  0  0  0  0  0  0  0  0  0  0
    6.5531    1.8732    2.0798 H   0  0  0  0  0  0  0  0  0  0  0  0
    6.0503    0.2418    2.4790 H   0  0  0  0  0  0  0  0  0  0  0  0
    8.0185   -0.3268    3.8442 H   0  0  0  0  0  0  0  0  0  0  0  0
    9.6529    0.0504    3.2790 H   0  0  0  0  0  0  0  0  0  0  0  0
    8.5378    1.3606    3.6711 H   0  0  0  0  0  0  0  0  0  0  0  0
    7.8034   -1.7806    1.8694 H   0  0  0  0  0  0  0  0  0  0  0  0
    9.2885   -1.3360    1.0748 H   0  0  0  0  0  0  0  0  0  0  0  0
    8.1206   -0.6000   -0.9219 H   0  0  0  0  0  0  0  0  0  0  0  0
    7.6441   -2.2373   -0.5220 H   0  0  0  0  0  0  0  0  0  0  0  0
   10.6011    1.6779    0.2152 H   0  0  0  0  0  0  0  0  0  0  0  0
    5.3483   -2.7725    0.2644 H   0  0  0  0  0  0  0  0  0  0  0  0
    5.5818   -1.7850    1.7051 H   0  0  0  0  0  0  0  0  0  0  0  0
    4.1891   -1.5111    0.6737 H   0  0  0  0  0  0  0  0  0  0  0  0
    1.6970    4.0149   -1.4650 H   0  0  0  0  0  0  0  0  0  0  0  0
    3.1073    3.8343   -2.4708 H   0  0  0  0  0  0  0  0  0  0  0  0
    3.2876    3.9426   -0.7062 H   0  0  0  0  0  0  0  0  0  0  0  0
   -1.3433   -3.0390   -1.6330 H   0  0  0  0  0  0  0  0  0  0  0  0
   -0.2476   -2.5059   -0.3804 H   0  0  0  0  0  0  0  0  0  0  0  0
    0.2651   -2.4830   -2.0756 H   0  0  0  0  0  0  0  0  0  0  0  0
   -2.1899    0.1783   -3.1842 H   0  0  0  0  0  0  0  0  0  0  0  0
   -2.6637   -1.5105   -2.9945 H   0  0  0  0  0  0  0  0  0  0  0  0
   -1.1404   -1.1341   -3.7588 H   0  0  0  0  0  0  0  0  0  0  0  0
   -4.4482   -0.1191    0.3047 H   0  0  0  0  0  0  0  0  0  0  0  0
   -4.4241   -2.5851   -2.4224 H   0  0  0  0  0  0  0  0  0  0  0  0
   -6.4185   -2.3553   -5.1417 H   0  0  0  0  0  0  0  0  0  0  0  0
   -7.1886   -2.8779   -1.1128 H   0  0  0  0  0  0  0  0  0  0  0  0
   -6.0891   -4.0683    0.7003 H   0  0  0  0  0  0  0  0  0  0  0  0
   -4.6604   -2.2307    1.6976 H   0  0  0  0  0  0  0  0  0  0  0  0
   -5.8733   -0.6497    2.8742 H   0  0  0  0  0  0  0  0  0  0  0  0
   -7.9879    1.8629    1.1401 H   0  0  0  0  0  0  0  0  0  0  0  0
   -5.5147    3.9863   -0.1353 H   0  0  0  0  0  0  0  0  0  0  0  0
   -7.8808    2.8330    3.4928 H   0  0  0  0  0  0  0  0  0  0  0  0
   -8.0023    0.3921    4.6353 H   0  0  0  0  0  0  0  0  0  0  0  0
   -8.2467   -1.4401    3.1865 H   0  0  0  0  0  0  0  0  0  0  0  0
   -8.6566   -0.9636    0.8776 H   0  0  0  0  0  0  0  0  0  0  0  0
  -10.0026    0.6774    2.7759 H   0  0  0  0  0  0  0  0  0  0  0  0
   -5.7472    2.7071    3.9342 H   0  0  0  0  0  0  0  0  0  0  0  0
   -3.5188   -3.4625   -0.2715 H   0  0  0  0  0  0  0  0  0  0  0  0
   -5.3972   -4.9635   -1.6707 H   0  0  0  0  0  0  0  0  0  0  0  0
  1  2  2  0
  2  3  1  0
  3  4  1  0
  4  5  1  0
  5  6  1  0
  6  7  1  0
  7  8  1  0
  8  9  1  0
  9 10  1  0
 10 11  1  0
 11 12  1  0
 12 13  1  0
 13 14  1  0
 14 15  2  0
 15 16  1  0
 16 17  1  0
 16 18  1  0
 18 19  1  0
 19 20  1  0
 20 21  1  0
 21 22  1  0
 22 23  1  0
 23 24  1  0
 23 25  1  0
 25 26  1  0
 23 27  1  0
 27 28  2  0
 27 29  1  0
 20 30  1  0
 11 31  1  0
  7 32  1  0
  7 33  1  0
  6 34  1  0
 34 35  1  0
 35 36  1  0
 36 37  1  0
 37 38  1  0
 38 39  2  0
 38 40  1  0
 37 41  1  0
 41 42  1  0
 42 43  1  0
 43 44  1  0
 44 45  1  0
 45 46  1  0
 46 47  1  0
 47 48  1  0
 48 49  2  0
 48 50  1  0
 47 51  1  0
 51 52  1  0
 52 53  1  0
 53 54  1  0
 52 55  1  0
 51 56  1  0
 42 57  1  0
 41 58  1  0
  8  3  1  0
 16 11  1  0
 26 20  1  0
 43 35  1  0
 53 45  1  0
 12  3  1  0
 21 15  1  0
  2 59  1  0
  4 60  1  0
  4 61  1  0
  5 62  1  0
  5 63  1  0
  6 64  1  0
  8 65  1  0
  9 66  1  0
  9 67  1  0
 10 68  1  0
 10 69  1  0
 12 70  1  0
 13 71  1  0
 13 72  1  0
 14 73  1  0
 17 74  1  0
 17 75  1  0
 17 76  1  0
 18 77  1  0
 18 78  1  0
 19 79  1  0
 19 80  1  0
 21 81  1  0
 22 82  1  0
 22 83  1  0
 24 84  1  0
 24 85  1  0
 24 86  1  0
 25 87  1  0
 25 88  1  0
 26 89  1  0
 26 90  1  0
 29 91  1  0
 30 92  1  0
 30 93  1  0
 30 94  1  0
 31 95  1  0
 31 96  1  0
 31 97  1  0
 32 98  1  0
 32 99  1  0
 32100  1  0
 33101  1  0
 33102  1  0
 33103  1  0
 35104  1  0
 37105  1  0
 40106  1  0
 41107  1  0
 42108  1  0
 43109  1  0
 45110  1  0
 47111  1  0
 50112  1  0
 51113  1  0
 52114  1  0
 53115  1  0
 54116  1  0
 55117  1  0
 56118  1  0
 57119  1  0
 58120  1  0
M  END
