
     RDKit          3D

122128  0  0  0  0  0  0  0  0999 V2000
   -0.5506   -0.6794   -2.7879 O   0  0  0  0  0  0  0  0  0  0  0  0
    0.2558    0.2618   -2.0973 C   0  0  0  0  0  0  0  0  0  0  0  0
    0.5765   -0.1515   -0.5998 C   0  0  0  0  0  0  0  0  0  0  0  0
   -0.0586   -1.5251   -0.2407 C   0  0  0  0  0  0  0  0  0  0  0  0
   -1.5869   -1.5258   -0.0990 C   0  0  0  0  0  0  0  0  0  0  0  0
   -2.1091   -0.4672    0.8752 C   0  0  0  0  0  0  0  0  0  0  0  0
   -1.5730    0.9582    0.5493 C   0  0  0  0  0  0  0  0  0  0  0  0
    0.0126    0.9492    0.3925 C   0  0  0  0  0  0  0  0  0  0  0  0
    0.7054    0.8450    1.7731 C   0  0  0  0  0  0  0  0  0  0  0  0
    2.2133    1.0390    1.6914 C   0  0  0  0  0  0  0  0  0  0  0  0
    2.9315   -0.0140    0.8201 C   0  0  0  0  0  0  0  0  0  0  0  0
    2.1767   -0.1852   -0.5433 C   0  0  0  0  0  0  0  0  0  0  0  0
    2.7915   -1.3669   -1.3308 C   0  0  0  0  0  0  0  0  0  0  0  0
    4.2598   -1.1088   -1.6650 C   0  0  0  0  0  0  0  0  0  0  0  0
    5.1299   -0.6255   -0.4879 C   0  0  0  0  0  0  0  0  0  0  0  0
    4.4571    0.4334    0.4756 C   0  0  0  0  0  0  0  0  0  0  0  0
    5.3020    0.4991    1.7909 C   0  0  0  0  0  0  0  0  0  0  0  0
    4.5386    1.8846   -0.1433 C   0  0  0  0  0  0  0  0  0  0  0  0
    5.1926    2.0075   -1.5220 C   0  0  0  0  0  0  0  0  0  0  0  0
    6.5128    1.2254   -1.7094 C   0  0  0  0  0  0  0  0  0  0  0  0
    6.4917   -0.0957   -0.9489 C   0  0  0  0  0  0  0  0  0  0  0  0
    7.6361   -0.6795   -0.5305 C   0  0  0  0  0  0  0  0  0  0  0  0
    9.0231   -0.0660   -0.6697 C   0  0  0  0  0  0  0  0  0  0  0  0
    9.9156   -1.0043   -1.5006 C   0  0  0  0  0  0  0  0  0  0  0  0
    9.0388    1.3430   -1.3127 C   0  0  0  0  0  0  0  0  0  0  0  0
    7.6992    2.0762   -1.1901 C   0  0  0  0  0  0  0  0  0  0  0  0
    9.6047    0.0005    0.7546 C   0  0  0  0  0  0  0  0  0  0  0  0
   10.3229   -0.8333    1.2891 O   0  0  0  0  0  0  0  0  0  0  0  0
    9.2035    1.0757    1.4675 O   0  0  0  0  0  0  0  0  0  0  0  0
    6.6993    0.9760   -3.2292 C   0  0  0  0  0  0  0  0  0  0  0  0
    2.9502   -1.3293    1.6596 C   0  0  0  0  0  0  0  0  0  0  0  0
   -2.2746    1.5277   -0.7140 C   0  0  0  0  0  0  0  0  0  0  0  0
   -2.0227    1.9148    1.6920 C   0  0  0  0  0  0  0  0  0  0  0  0
   -3.5394   -0.4122    0.8096 O   0  0  0  0  0  0  0  0  0  0  0  0
   -4.2399   -1.2327    1.7419 C   0  0  0  0  0  0  0  0  0  0  0  0
   -4.1544   -2.6178    1.3995 O   0  0  0  0  0  0  0  0  0  0  0  0
   -4.8174   -3.4443    2.3608 C   0  0  0  0  0  0  0  0  0  0  0  0
   -4.6459   -4.9231    2.0341 C   0  0  0  0  0  0  0  0  0  0  0  0
   -4.2222   -5.4298    1.0050 O   0  0  0  0  0  0  0  0  0  0  0  0
   -5.0279   -5.7260    3.0578 O   0  0  0  0  0  0  0  0  0  0  0  0
   -6.3219   -3.1195    2.4428 C   0  0  0  0  0  0  0  0  0  0  0  0
   -6.5328   -1.6204    2.7191 C   0  0  0  0  0  0  0  0  0  0  0  0
   -5.7161   -0.7716    1.7362 C   0  0  0  0  0  0  0  0  0  0  0  0
   -6.2811   -0.9587    0.4175 O   0  0  0  0  0  0  0  0  0  0  0  0
   -6.6989    0.2767   -0.1718 C   0  0  0  0  0  0  0  0  0  0  0  0
   -7.8585    0.7179    0.5412 O   0  0  0  0  0  0  0  0  0  0  0  0
   -8.4529    1.9106    0.0320 C   0  0  0  0  0  0  0  0  0  0  0  0
   -7.6279    3.1820    0.2606 C   0  0  0  0  0  0  0  0  0  0  0  0
   -6.5612    3.2674    0.8462 O   0  0  0  0  0  0  0  0  0  0  0  0
   -8.2226    4.2904   -0.2188 O   0  0  0  0  0  0  0  0  0  0  0  0
   -8.8640    1.7436   -1.4373 C   0  0  0  0  0  0  0  0  0  0  0  0
   -7.6702    1.2752   -2.2703 C   0  0  0  0  0  0  0  0  0  0  0  0
   -7.0123    0.0332   -1.6634 C   0  0  0  0  0  0  0  0  0  0  0  0
   -5.8219   -0.2450   -2.4166 O   0  0  0  0  0  0  0  0  0  0  0  0
   -8.1012    0.9655   -3.6059 O   0  0  0  0  0  0  0  0  0  0  0  0
   -9.8986    0.7459   -1.5851 O   0  0  0  0  0  0  0  0  0  0  0  0
   -6.1618   -1.3028    4.0630 O   0  0  0  0  0  0  0  0  0  0  0  0
   -7.0024   -3.4759    1.2323 O   0  0  0  0  0  0  0  0  0  0  0  0
   -0.7420   -0.3130   -3.6694 H   0  0  0  0  0  0  0  0  0  0  0  0
    1.1644    0.3673   -2.7008 H   0  0  0  0  0  0  0  0  0  0  0  0
   -0.2133    1.2457   -2.1557 H   0  0  0  0  0  0  0  0  0  0  0  0
    0.2165   -2.2803   -0.9843 H   0  0  0  0  0  0  0  0  0  0  0  0
    0.3419   -1.8918    0.7035 H   0  0  0  0  0  0  0  0  0  0  0  0
   -1.8956   -2.5186    0.2450 H   0  0  0  0  0  0  0  0  0  0  0  0
   -2.0783   -1.4132   -1.0714 H   0  0  0  0  0  0  0  0  0  0  0  0
   -1.7915   -0.7386    1.8924 H   0  0  0  0  0  0  0  0  0  0  0  0
    0.3004    1.9331   -0.0096 H   0  0  0  0  0  0  0  0  0  0  0  0
    0.4605   -0.1017    2.2686 H   0  0  0  0  0  0  0  0  0  0  0  0
    0.3508    1.6388    2.4405 H   0  0  0  0  0  0  0  0  0  0  0  0
    2.3859    2.0582    1.3393 H   0  0  0  0  0  0  0  0  0  0  0  0
    2.6120    1.0219    2.7142 H   0  0  0  0  0  0  0  0  0  0  0  0
    2.4457    0.7145   -1.1088 H   0  0  0  0  0  0  0  0  0  0  0  0
    2.6871   -2.3065   -0.7792 H   0  0  0  0  0  0  0  0  0  0  0  0
    2.2604   -1.5301   -2.2751 H   0  0  0  0  0  0  0  0  0  0  0  0
    4.2759   -0.3968   -2.4916 H   0  0  0  0  0  0  0  0  0  0  0  0
    4.6944   -2.0309   -2.0750 H   0  0  0  0  0  0  0  0  0  0  0  0
    5.3133   -1.5268    0.1161 H   0  0  0  0  0  0  0  0  0  0  0  0
    6.3044    0.8977    1.6060 H   0  0  0  0  0  0  0  0  0  0  0  0
    5.4346   -0.4864    2.2453 H   0  0  0  0  0  0  0  0  0  0  0  0
    4.8393    1.1557    2.5326 H   0  0  0  0  0  0  0  0  0  0  0  0
    5.0538    2.5640    0.5444 H   0  0  0  0  0  0  0  0  0  0  0  0
    3.5466    2.3265   -0.2593 H   0  0  0  0  0  0  0  0  0  0  0  0
    5.3525    3.0723   -1.7398 H   0  0  0  0  0  0  0  0  0  0  0  0
    4.4524    1.6948   -2.2669 H   0  0  0  0  0  0  0  0  0  0  0  0
    7.5848   -1.6062    0.0423 H   0  0  0  0  0  0  0  0  0  0  0  0
    9.9980   -2.0014   -1.0465 H   0  0  0  0  0  0  0  0  0  0  0  0
    9.5219   -1.1409   -2.5121 H   0  0  0  0  0  0  0  0  0  0  0  0
   10.9320   -0.6087   -1.5855 H   0  0  0  0  0  0  0  0  0  0  0  0
    9.2985    1.2712   -2.3760 H   0  0  0  0  0  0  0  0  0  0  0  0
    9.8278    1.9667   -0.8744 H   0  0  0  0  0  0  0  0  0  0  0  0
    7.7607    3.0207   -1.7495 H   0  0  0  0  0  0  0  0  0  0  0  0
    7.5289    2.3586   -0.1421 H   0  0  0  0  0  0  0  0  0  0  0  0
    9.6107    0.9394    2.3486 H   0  0  0  0  0  0  0  0  0  0  0  0
    6.8268    1.9263   -3.7639 H   0  0  0  0  0  0  0  0  0  0  0  0
    7.5726    0.3488   -3.4478 H   0  0  0  0  0  0  0  0  0  0  0  0
    5.8390    0.4692   -3.6782 H   0  0  0  0  0  0  0  0  0  0  0  0
    3.4020   -1.1684    2.6446 H   0  0  0  0  0  0  0  0  0  0  0  0
    1.9536   -1.7141    1.8647 H   0  0  0  0  0  0  0  0  0  0  0  0
    3.5144   -2.1367    1.1903 H   0  0  0  0  0  0  0  0  0  0  0  0
   -3.3375    1.7346   -0.5291 H   0  0  0  0  0  0  0  0  0  0  0  0
   -1.8209    2.4765   -1.0202 H   0  0  0  0  0  0  0  0  0  0  0  0
   -2.2527    0.8396   -1.5599 H   0  0  0  0  0  0  0  0  0  0  0  0
   -1.5598    2.9016    1.5827 H   0  0  0  0  0  0  0  0  0  0  0  0
   -1.7705    1.5189    2.6829 H   0  0  0  0  0  0  0  0  0  0  0  0
   -3.1084    2.0615    1.6963 H   0  0  0  0  0  0  0  0  0  0  0  0
   -3.8081   -1.0739    2.7398 H   0  0  0  0  0  0  0  0  0  0  0  0
   -4.3285   -3.2797    3.3290 H   0  0  0  0  0  0  0  0  0  0  0  0
   -4.9172   -6.6251    2.6767 H   0  0  0  0  0  0  0  0  0  0  0  0
   -6.7783   -3.7044    3.2503 H   0  0  0  0  0  0  0  0  0  0  0  0
   -7.5943   -1.3717    2.5907 H   0  0  0  0  0  0  0  0  0  0  0  0
   -5.7447    0.2888    2.0292 H   0  0  0  0  0  0  0  0  0  0  0  0
   -5.8775    0.9988   -0.0851 H   0  0  0  0  0  0  0  0  0  0  0  0
   -9.3622    2.0423    0.6342 H   0  0  0  0  0  0  0  0  0  0  0  0
   -7.6216    5.0227    0.0412 H   0  0  0  0  0  0  0  0  0  0  0  0
   -9.2753    2.6667   -1.8627 H   0  0  0  0  0  0  0  0  0  0  0  0
   -6.9294    2.0788   -2.3634 H   0  0  0  0  0  0  0  0  0  0  0  0
   -7.6608   -0.8442   -1.7717 H   0  0  0  0  0  0  0  0  0  0  0  0
   -6.1019   -0.2870   -3.3502 H   0  0  0  0  0  0  0  0  0  0  0  0
   -8.9526    0.4908   -3.4995 H   0  0  0  0  0  0  0  0  0  0  0  0
  -10.5958    0.9326   -0.9316 H   0  0  0  0  0  0  0  0  0  0  0  0
   -6.9198   -1.5353    4.6336 H   0  0  0  0  0  0  0  0  0  0  0  0
   -6.6382   -2.9019    0.5155 H   0  0  0  0  0  0  0  0  0  0  0  0
  1  2  1  0
  2  3  1  0
  3  4  1  0
  4  5  1  0
  5  6  1  0
  6  7  1  0
  7  8  1  0
  8  9  1  0
  9 10  1  0
 10 11  1  0
 11 12  1  0
 12 13  1  0
 13 14  1  0
 14 15  1  0
 15 16  1  0
 16 17  1  0
 16 18  1  0
 18 19  1  0
 19 20  1  0
 20 21  1  0
 21 22  2  0
 22 23  1  0
 23 24  1  0
 23 25  1  0
 25 26  1  0
 23 27  1  0
 27 28  2  0
 27 29  1  0
 20 30  1  0
 11 31  1  0
  7 32  1  0
  7 33  1  0
  6 34  1  0
 34 35  1  0
 35 36  1  0
 36 37  1  0
 37 38  1  0
 38 39  2  0
 38 40  1  0
 37 41  1  0
 41 42  1  0
 42 43  1  0
 43 44  1  0
 44 45  1  0
 45 46  1  0
 46 47  1  0
 47 48  1  0
 48 49  2  0
 48 50  1  0
 47 51  1  0
 51 52  1  0
 52 53  1  0
 53 54  1  0
 52 55  1  0
 51 56  1  0
 42 57  1  0
 41 58  1  0
  8  3  1  0
 16 11  1  0
 26 20  1  0
 43 35  1  0
 53 45  1  0
 12  3  1  0
 21 15  1  0
  1 59  1  0
  2 60  1  0
  2 61  1  0
  4 62  1  0
  4 63  1  0
  5 64  1  0
  5 65  1  0
  6 66  1  0
  8 67  1  0
  9 68  1  0
  9 69  1  0
 10 70  1  0
 10 71  1  0
 12 72  1  0
 13 73  1  0
 13 74  1  0
 14 75  1  0
 14 76  1  0
 15 77  1  0
 17 78  1  0
 17 79  1  0
 17 80  1  0
 18 81  1  0
 18 82  1  0
 19 83  1  0
 19 84  1  0
 22 85  1  0
 24 86  1  0
 24 87  1  0
 24 88  1  0
 25 89  1  0
 25 90  1  0
 26 91  1  0
 26 92  1  0
 29 93  1  0
 30 94  1  0
 30 95  1  0
 30 96  1  0
 31 97  1  0
 31 98  1  0
 31 99  1  0
 32100  1  0
 32101  1  0
 32102  1  0
 33103  1  0
 33104  1  0
 33105  1  0
 35106  1  0
 37107  1  0
 40108  1  0
 41109  1  0
 42110  1  0
 43111  1  0
 45112  1  0
 47113  1  0
 50114  1  0
 51115  1  0
 52116  1  0
 53117  1  0
 54118  1  0
 55119  1  0
 56120  1  0
 57121  1  0
 58122  1  0
M  END
