
     RDKit          3D

122128  0  0  0  0  0  0  0  0999 V2000
   -0.9632    3.5021    0.5854 O   0  0  0  0  0  0  0  0  0  0  0  0
   -0.2595    2.5736   -0.2180 C   0  0  0  0  0  0  0  0  0  0  0  0
   -0.5169    1.0624    0.1546 C   0  0  0  0  0  0  0  0  0  0  0  0
    0.3929    0.2810   -0.8541 C   0  0  0  0  0  0  0  0  0  0  0  0
    1.0235   -0.9837   -0.2855 C   0  0  0  0  0  0  0  0  0  0  0  0
    1.8991   -0.7317    0.9595 C   0  0  0  0  0  0  0  0  0  0  0  0
    1.4318    0.4745    1.8573 C   0  0  0  0  0  0  0  0  0  0  0  0
   -0.1021    0.6753    1.6172 C   0  0  0  0  0  0  0  0  0  0  0  0
   -0.8721    1.4392    2.7004 C   0  0  0  0  0  0  0  0  0  0  0  0
   -2.3686    1.6088    2.4072 C   0  0  0  0  0  0  0  0  0  0  0  0
   -2.9540    0.6886    1.3013 C   0  0  0  0  0  0  0  0  0  0  0  0
   -2.0997    0.8334   -0.0224 C   0  0  0  0  0  0  0  0  0  0  0  0
   -2.5712   -0.2285   -1.0330 C   0  0  0  0  0  0  0  0  0  0  0  0
   -4.0771   -0.2834   -1.1542 C   0  0  0  0  0  0  0  0  0  0  0  0
   -4.9614    0.3237   -0.3329 C   0  0  0  0  0  0  0  0  0  0  0  0
   -4.4925    1.0816    0.9444 C   0  0  0  0  0  0  0  0  0  0  0  0
   -4.6552    2.6086    0.6660 C   0  0  0  0  0  0  0  0  0  0  0  0
   -5.4264    0.7415    2.1526 C   0  0  0  0  0  0  0  0  0  0  0  0
   -6.9251    0.7620    1.8391 C   0  0  0  0  0  0  0  0  0  0  0  0
   -7.3094   -0.1133    0.6210 C   0  0  0  0  0  0  0  0  0  0  0  0
   -6.4759    0.3696   -0.6039 C   0  0  0  0  0  0  0  0  0  0  0  0
   -6.9741   -0.2958   -1.9074 C   0  0  0  0  0  0  0  0  0  0  0  0
   -8.4847   -0.0476   -2.1779 C   0  0  0  0  0  0  0  0  0  0  0  0
   -9.2007   -1.3810   -2.4761 C   0  0  0  0  0  0  0  0  0  0  0  0
   -9.1800    0.6560   -0.9892 C   0  0  0  0  0  0  0  0  0  0  0  0
   -8.8375    0.0370    0.3640 C   0  0  0  0  0  0  0  0  0  0  0  0
   -8.6247    0.8498   -3.4092 C   0  0  0  0  0  0  0  0  0  0  0  0
   -9.0027    2.0088   -3.4391 O   0  0  0  0  0  0  0  0  0  0  0  0
   -8.2572    0.2469   -4.5591 O   0  0  0  0  0  0  0  0  0  0  0  0
   -7.0400   -1.6027    0.9481 C   0  0  0  0  0  0  0  0  0  0  0  0
   -2.9282   -0.7919    1.8221 C   0  0  0  0  0  0  0  0  0  0  0  0
    1.7009    0.0683    3.3314 C   0  0  0  0  0  0  0  0  0  0  0  0
    2.2739    1.7436    1.6200 C   0  0  0  0  0  0  0  0  0  0  0  0
    3.2642   -0.5272    0.5755 O   0  0  0  0  0  0  0  0  0  0  0  0
    4.0928   -1.6771    0.7891 C   0  0  0  0  0  0  0  0  0  0  0  0
    3.8111   -2.6656   -0.1959 O   0  0  0  0  0  0  0  0  0  0  0  0
    4.8282   -3.6562   -0.3757 C   0  0  0  0  0  0  0  0  0  0  0  0
    5.5848   -3.4790   -1.7004 C   0  0  0  0  0  0  0  0  0  0  0  0
    5.4384   -2.6200   -2.5584 O   0  0  0  0  0  0  0  0  0  0  0  0
    6.5159   -4.4373   -1.8960 O   0  0  0  0  0  0  0  0  0  0  0  0
    5.8201   -3.7480    0.7940 C   0  0  0  0  0  0  0  0  0  0  0  0
    6.5004   -2.3942    1.0515 C   0  0  0  0  0  0  0  0  0  0  0  0
    5.5647   -1.2084    0.7719 C   0  0  0  0  0  0  0  0  0  0  0  0
    5.8683   -0.7083   -0.5418 O   0  0  0  0  0  0  0  0  0  0  0  0
    6.6005    0.5122   -0.5294 C   0  0  0  0  0  0  0  0  0  0  0  0
    7.8753    0.3203    0.0891 O   0  0  0  0  0  0  0  0  0  0  0  0
    9.0080    0.3504   -0.7728 C   0  0  0  0  0  0  0  0  0  0  0  0
    9.2830   -0.9279   -1.5875 C   0  0  0  0  0  0  0  0  0  0  0  0
    8.6333   -1.9606   -1.6133 O   0  0  0  0  0  0  0  0  0  0  0  0
   10.4499   -0.8631   -2.2677 O   0  0  0  0  0  0  0  0  0  0  0  0
    9.0692    1.6219   -1.6522 C   0  0  0  0  0  0  0  0  0  0  0  0
    7.6807    2.1524   -2.0550 C   0  0  0  0  0  0  0  0  0  0  0  0
    6.6380    1.0503   -1.9769 C   0  0  0  0  0  0  0  0  0  0  0  0
    6.9698    0.0184   -2.9189 O   0  0  0  0  0  0  0  0  0  0  0  0
    7.2975    3.2466   -1.2103 O   0  0  0  0  0  0  0  0  0  0  0  0
    9.7525    2.6968   -0.9603 O   0  0  0  0  0  0  0  0  0  0  0  0
    6.9792   -2.3760    2.4085 O   0  0  0  0  0  0  0  0  0  0  0  0
    5.1363   -4.1609    1.9965 O   0  0  0  0  0  0  0  0  0  0  0  0
   -0.7143    4.3907    0.2831 H   0  0  0  0  0  0  0  0  0  0  0  0
    0.7936    2.8442   -0.1714 H   0  0  0  0  0  0  0  0  0  0  0  0
   -0.5686    2.7458   -1.2579 H   0  0  0  0  0  0  0  0  0  0  0  0
   -0.1371    0.0400   -1.7775 H   0  0  0  0  0  0  0  0  0  0  0  0
    1.2273    0.9166   -1.1836 H   0  0  0  0  0  0  0  0  0  0  0  0
    0.2213   -1.6859   -0.0265 H   0  0  0  0  0  0  0  0  0  0  0  0
    1.6161   -1.4667   -1.0716 H   0  0  0  0  0  0  0  0  0  0  0  0
    1.8234   -1.6524    1.5561 H   0  0  0  0  0  0  0  0  0  0  0  0
   -0.4502   -0.3488    1.7530 H   0  0  0  0  0  0  0  0  0  0  0  0
   -0.7888    0.8937    3.6508 H   0  0  0  0  0  0  0  0  0  0  0  0
   -0.4213    2.4203    2.8856 H   0  0  0  0  0  0  0  0  0  0  0  0
   -2.5245    2.6581    2.1530 H   0  0  0  0  0  0  0  0  0  0  0  0
   -2.9207    1.4699    3.3457 H   0  0  0  0  0  0  0  0  0  0  0  0
   -2.4380    1.7645   -0.4894 H   0  0  0  0  0  0  0  0  0  0  0  0
   -2.1945    0.0263   -2.0306 H   0  0  0  0  0  0  0  0  0  0  0  0
   -2.1903   -1.2240   -0.7849 H   0  0  0  0  0  0  0  0  0  0  0  0
   -4.4238   -0.8316   -2.0263 H   0  0  0  0  0  0  0  0  0  0  0  0
   -4.4028    3.2132    1.5443 H   0  0  0  0  0  0  0  0  0  0  0  0
   -5.6881    2.8829    0.4264 H   0  0  0  0  0  0  0  0  0  0  0  0
   -4.0486    2.9584   -0.1736 H   0  0  0  0  0  0  0  0  0  0  0  0
   -5.2421    1.4454    2.9745 H   0  0  0  0  0  0  0  0  0  0  0  0
   -5.2074   -0.2465    2.5675 H   0  0  0  0  0  0  0  0  0  0  0  0
   -7.4721    0.4215    2.7289 H   0  0  0  0  0  0  0  0  0  0  0  0
   -7.2474    1.7979    1.6699 H   0  0  0  0  0  0  0  0  0  0  0  0
   -6.6886    1.4372   -0.7512 H   0  0  0  0  0  0  0  0  0  0  0  0
   -6.3814    0.0925   -2.7472 H   0  0  0  0  0  0  0  0  0  0  0  0
   -6.7664   -1.3733   -1.8708 H   0  0  0  0  0  0  0  0  0  0  0  0
  -10.2356   -1.2106   -2.7921 H   0  0  0  0  0  0  0  0  0  0  0  0
   -8.7015   -1.9360   -3.2775 H   0  0  0  0  0  0  0  0  0  0  0  0
   -9.2203   -2.0333   -1.5981 H   0  0  0  0  0  0  0  0  0  0  0  0
   -8.9080    1.7198   -0.9573 H   0  0  0  0  0  0  0  0  0  0  0  0
  -10.2697    0.6430   -1.1283 H   0  0  0  0  0  0  0  0  0  0  0  0
   -9.3435   -0.9341    0.4418 H   0  0  0  0  0  0  0  0  0  0  0  0
   -9.3023    0.6541    1.1448 H   0  0  0  0  0  0  0  0  0  0  0  0
   -8.3984    0.9392   -5.2398 H   0  0  0  0  0  0  0  0  0  0  0  0
   -7.4220   -2.2622    0.1604 H   0  0  0  0  0  0  0  0  0  0  0  0
   -7.5405   -1.8925    1.8798 H   0  0  0  0  0  0  0  0  0  0  0  0
   -5.9780   -1.8270    1.0638 H   0  0  0  0  0  0  0  0  0  0  0  0
   -3.7347   -1.4001    1.4003 H   0  0  0  0  0  0  0  0  0  0  0  0
   -2.0221   -1.3411    1.5673 H   0  0  0  0  0  0  0  0  0  0  0  0
   -3.0330   -0.8334    2.9129 H   0  0  0  0  0  0  0  0  0  0  0  0
    2.7459   -0.2290    3.4743 H   0  0  0  0  0  0  0  0  0  0  0  0
    1.5031    0.8962    4.0210 H   0  0  0  0  0  0  0  0  0  0  0  0
    1.0760   -0.7817    3.6307 H   0  0  0  0  0  0  0  0  0  0  0  0
    3.2611    1.6604    2.0907 H   0  0  0  0  0  0  0  0  0  0  0  0
    1.7947    2.6294    2.0493 H   0  0  0  0  0  0  0  0  0  0  0  0
    2.4618    1.9264    0.5587 H   0  0  0  0  0  0  0  0  0  0  0  0
    3.8732   -2.0769    1.7844 H   0  0  0  0  0  0  0  0  0  0  0  0
    4.2852   -4.6055   -0.4632 H   0  0  0  0  0  0  0  0  0  0  0  0
    6.9630   -4.1640   -2.7274 H   0  0  0  0  0  0  0  0  0  0  0  0
    6.5861   -4.5125    0.6195 H   0  0  0  0  0  0  0  0  0  0  0  0
    7.3853   -2.3336    0.4164 H   0  0  0  0  0  0  0  0  0  0  0  0
    5.6912   -0.4165    1.5187 H   0  0  0  0  0  0  0  0  0  0  0  0
    6.0594    1.2389    0.0888 H   0  0  0  0  0  0  0  0  0  0  0  0
    9.8566    0.3855   -0.0768 H   0  0  0  0  0  0  0  0  0  0  0  0
   10.5061   -1.7323   -2.7248 H   0  0  0  0  0  0  0  0  0  0  0  0
    9.6496    1.4369   -2.5619 H   0  0  0  0  0  0  0  0  0  0  0  0
    7.7416    2.5490   -3.0752 H   0  0  0  0  0  0  0  0  0  0  0  0
    5.6431    1.4225   -2.2477 H   0  0  0  0  0  0  0  0  0  0  0  0
    6.3536   -0.7262   -2.7180 H   0  0  0  0  0  0  0  0  0  0  0  0
    8.1411    3.6227   -0.8814 H   0  0  0  0  0  0  0  0  0  0  0  0
   10.6807    2.4257   -0.8483 H   0  0  0  0  0  0  0  0  0  0  0  0
    7.4993   -1.5516    2.5068 H   0  0  0  0  0  0  0  0  0  0  0  0
    5.7634   -3.9443    2.7177 H   0  0  0  0  0  0  0  0  0  0  0  0
  1  2  1  0
  2  3  1  0
  3  4  1  0
  4  5  1  0
  5  6  1  0
  6  7  1  0
  7  8  1  0
  8  9  1  0
  9 10  1  0
 10 11  1  0
 11 12  1  0
 12 13  1  0
 13 14  1  0
 14 15  2  0
 15 16  1  0
 16 17  1  0
 16 18  1  0
 18 19  1  0
 19 20  1  0
 20 21  1  0
 21 22  1  0
 22 23  1  0
 23 24  1  0
 23 25  1  0
 25 26  1  0
 23 27  1  0
 27 28  2  0
 27 29  1  0
 20 30  1  0
 11 31  1  0
  7 32  1  0
  7 33  1  0
  6 34  1  0
 34 35  1  0
 35 36  1  0
 36 37  1  0
 37 38  1  0
 38 39  2  0
 38 40  1  0
 37 41  1  0
 41 42  1  0
 42 43  1  0
 43 44  1  0
 44 45  1  0
 45 46  1  0
 46 47  1  0
 47 48  1  0
 48 49  2  0
 48 50  1  0
 47 51  1  0
 51 52  1  0
 52 53  1  0
 53 54  1  0
 52 55  1  0
 51 56  1  0
 42 57  1  0
 41 58  1  0
  8  3  1  0
 16 11  1  0
 26 20  1  0
 43 35  1  0
 53 45  1  0
 12  3  1  0
 21 15  1  0
  1 59  1  0
  2 60  1  0
  2 61  1  0
  4 62  1  0
  4 63  1  0
  5 64  1  0
  5 65  1  0
  6 66  1  0
  8 67  1  0
  9 68  1  0
  9 69  1  0
 10 70  1  0
 10 71  1  0
 12 72  1  0
 13 73  1  0
 13 74  1  0
 14 75  1  0
 17 76  1  0
 17 77  1  0
 17 78  1  0
 18 79  1  0
 18 80  1  0
 19 81  1  0
 19 82  1  0
 21 83  1  0
 22 84  1  0
 22 85  1  0
 24 86  1  0
 24 87  1  0
 24 88  1  0
 25 89  1  0
 25 90  1  0
 26 91  1  0
 26 92  1  0
 29 93  1  0
 30 94  1  0
 30 95  1  0
 30 96  1  0
 31 97  1  0
 31 98  1  0
 31 99  1  0
 32100  1  0
 32101  1  0
 32102  1  0
 33103  1  0
 33104  1  0
 33105  1  0
 35106  1  0
 37107  1  0
 40108  1  0
 41109  1  0
 42110  1  0
 43111  1  0
 45112  1  0
 47113  1  0
 50114  1  0
 51115  1  0
 52116  1  0
 53117  1  0
 54118  1  0
 55119  1  0
 56120  1  0
 57121  1  0
 58122  1  0
M  END
