
     RDKit          3D

 21 22  0  0  0  0  0  0  0  0999 V2000
   -3.1083    0.2885    0.2043 C   0  0  0  0  0  0  0  0  0  0  0  0
   -1.8058   -0.2813   -0.0287 N   0  0  0  0  0  0  0  0  0  0  0  0
   -1.5418   -1.5561   -0.4566 C   0  0  0  0  0  0  0  0  0  0  0  0
   -0.2460   -1.7736   -0.5737 N   0  0  0  0  0  0  0  0  0  0  0  0
    0.3296   -0.5953   -0.2071 C   0  0  0  0  0  0  0  0  0  0  0  0
   -0.6035    0.3417    0.1335 C   0  0  0  0  0  0  0  0  0  0  0  0
   -0.2575    1.6533    0.5520 C   0  0  0  0  0  0  0  0  0  0  0  0
   -1.0578    2.5263    0.8669 O   0  0  0  0  0  0  0  0  0  0  0  0
    1.1047    1.8543    0.5700 N   0  0  0  0  0  0  0  0  0  0  0  0
    2.0928    0.9443    0.2363 C   0  0  0  0  0  0  0  0  0  0  0  0
    3.2707    1.2949    0.3099 O   0  0  0  0  0  0  0  0  0  0  0  0
    1.6800   -0.3223   -0.1650 N   0  0  0  0  0  0  0  0  0  0  0  0
    2.6482   -1.3367   -0.5323 C   0  0  0  0  0  0  0  0  0  0  0  0
   -3.2337    1.1509   -0.4551 H   0  0  0  0  0  0  0  0  0  0  0  0
   -3.8770   -0.4574   -0.0136 H   0  0  0  0  0  0  0  0  0  0  0  0
   -3.1735    0.5901    1.2526 H   0  0  0  0  0  0  0  0  0  0  0  0
   -2.3205   -2.2788   -0.6665 H   0  0  0  0  0  0  0  0  0  0  0  0
    1.4248    2.7652    0.8578 H   0  0  0  0  0  0  0  0  0  0  0  0
    2.5307   -2.1999    0.1304 H   0  0  0  0  0  0  0  0  0  0  0  0
    2.4709   -1.6421   -1.5683 H   0  0  0  0  0  0  0  0  0  0  0  0
    3.6731   -0.9660   -0.4467 H   0  0  0  0  0  0  0  0  0  0  0  0
  1  2  1  0
  2  3  1  0
  3  4  2  0
  4  5  1  0
  5  6  2  0
  6  7  1  0
  7  8  2  0
  7  9  1  0
  9 10  1  0
 10 11  2  0
 10 12  1  0
 12 13  1  0
  6  2  1  0
 12  5  1  0
  1 14  1  0
  1 15  1  0
  1 16  1  0
  3 17  1  0
  9 18  1  0
 13 19  1  0
 13 20  1  0
 13 21  1  0
M  END
