
     RDKit          3D

123130  0  0  0  0  0  0  0  0999 V2000
   -5.8613    6.4917   -2.7961 C   0  0  0  0  0  0  0  0  0  0  0  0
   -6.1420    5.2345   -2.1805 O   0  0  0  0  0  0  0  0  0  0  0  0
   -5.1834    4.2873   -2.3744 C   0  0  0  0  0  0  0  0  0  0  0  0
   -4.1512    4.4772   -3.0193 O   0  0  0  0  0  0  0  0  0  0  0  0
   -5.5112    2.9857   -1.6332 C   0  0  0  0  0  0  0  0  0  0  0  0
   -4.7263    1.9306   -2.2168 O   0  0  0  0  0  0  0  0  0  0  0  0
   -4.7132    0.7505   -1.4082 C   0  0  0  0  0  0  0  0  0  0  0  0
   -3.8589    0.9500   -0.2812 O   0  0  0  0  0  0  0  0  0  0  0  0
   -2.4636    0.8843   -0.6275 C   0  0  0  0  0  0  0  0  0  0  0  0
   -1.9428   -0.4590   -0.1141 C   0  0  0  0  0  0  0  0  0  0  0  0
   -0.4584   -0.6329   -0.3887 C   0  0  0  0  0  0  0  0  0  0  0  0
    0.3545    0.5261    0.1538 C   0  0  0  0  0  0  0  0  0  0  0  0
   -0.1489    1.8904   -0.3296 C   0  0  0  0  0  0  0  0  0  0  0  0
   -1.6740    2.0847   -0.0341 C   0  0  0  0  0  0  0  0  0  0  0  0
   -1.9654    2.2628    1.4705 C   0  0  0  0  0  0  0  0  0  0  0  0
   -2.1754    3.3319   -0.7632 C   0  0  0  0  0  0  0  0  0  0  0  0
   -2.8170    4.2492   -0.2761 O   0  0  0  0  0  0  0  0  0  0  0  0
   -1.9019    3.3260   -2.0855 O   0  0  0  0  0  0  0  0  0  0  0  0
    0.7284    3.0424    0.1889 C   0  0  0  0  0  0  0  0  0  0  0  0
    2.1707    2.8766   -0.2673 C   0  0  0  0  0  0  0  0  0  0  0  0
    2.8041    1.4857   -0.0593 C   0  0  0  0  0  0  0  0  0  0  0  0
    1.8724    0.3349    0.3253 C   0  0  0  0  0  0  0  0  0  0  0  0
    0.9516    0.4023    1.5336 C   0  0  0  0  0  0  0  0  0  0  0  0
    2.5018   -1.0307    0.0653 C   0  0  0  0  0  0  0  0  0  0  0  0
    4.0222   -0.9727   -0.0957 C   0  0  0  0  0  0  0  0  0  0  0  0
    4.7389   -0.0229    0.9042 C   0  0  0  0  0  0  0  0  0  0  0  0
    4.1090    1.4585    0.8139 C   0  0  0  0  0  0  0  0  0  0  0  0
    3.8639    2.1119    2.2003 C   0  0  0  0  0  0  0  0  0  0  0  0
    5.2203    2.2798    0.1187 C   0  0  0  0  0  0  0  0  0  0  0  0
    6.5139    1.6470    0.5937 C   0  0  0  0  0  0  0  0  0  0  0  0
    6.2481    0.1439    0.4365 C   0  0  0  0  0  0  0  0  0  0  0  0
    7.3553   -0.7615    1.0753 C   0  0  0  0  0  0  0  0  0  0  0  0
    7.1841   -2.2677    0.7041 C   0  0  0  0  0  0  0  0  0  0  0  0
    8.1780   -3.2297    1.3633 C   0  0  0  0  0  0  0  0  0  0  0  0
    9.3568   -3.5310    0.5038 C   0  0  0  0  0  0  0  0  0  0  0  0
    9.3487   -3.3239   -0.8227 C   0  0  0  0  0  0  0  0  0  0  0  0
    8.1373   -2.8091   -1.5049 C   0  0  0  0  0  0  0  0  0  0  0  0
    8.0792   -2.7400   -2.7278 O   0  0  0  0  0  0  0  0  0  0  0  0
    7.0938   -2.4424   -0.7268 O   0  0  0  0  0  0  0  0  0  0  0  0
   10.5156   -3.6448   -1.7048 C   0  0  0  0  0  0  0  0  0  0  0  0
    8.7569   -0.2475    0.6955 C   0  0  0  0  0  0  0  0  0  0  0  0
    4.6112   -0.6146    2.3257 C   0  0  0  0  0  0  0  0  0  0  0  0
   -6.1368    0.3524   -0.9486 C   0  0  0  0  0  0  0  0  0  0  0  0
   -7.1662    1.0860   -1.8202 C   0  0  0  0  0  0  0  0  0  0  0  0
   -6.9951    2.6076   -1.7083 C   0  0  0  0  0  0  0  0  0  0  0  0
   -7.6881    3.0512   -0.5253 O   0  0  0  0  0  0  0  0  0  0  0  0
   -8.5057    0.7312   -1.4220 O   0  0  0  0  0  0  0  0  0  0  0  0
   -6.3693   -1.0539   -1.1769 O   0  0  0  0  0  0  0  0  0  0  0  0
   -6.4762   -1.8237    0.0253 C   0  0  0  0  0  0  0  0  0  0  0  0
   -5.1797   -2.2103    0.4674 O   0  0  0  0  0  0  0  0  0  0  0  0
   -4.9134   -3.6195    0.4361 C   0  0  0  0  0  0  0  0  0  0  0  0
   -3.4895   -3.8754    0.9732 C   0  0  0  0  0  0  0  0  0  0  0  0
   -3.3027   -3.4436    2.3189 O   0  0  0  0  0  0  0  0  0  0  0  0
   -5.9806   -4.4058    1.2294 C   0  0  0  0  0  0  0  0  0  0  0  0
   -7.4130   -4.0256    0.8072 C   0  0  0  0  0  0  0  0  0  0  0  0
   -7.4255   -2.9950   -0.3173 C   0  0  0  0  0  0  0  0  0  0  0  0
   -8.7719   -2.5143   -0.5134 O   0  0  0  0  0  0  0  0  0  0  0  0
   -8.1322   -3.5229    1.9502 O   0  0  0  0  0  0  0  0  0  0  0  0
   -5.8219   -4.2055    2.6451 O   0  0  0  0  0  0  0  0  0  0  0  0
   -5.7275    6.3696   -3.8767 H   0  0  0  0  0  0  0  0  0  0  0  0
   -6.7185    7.1504   -2.6265 H   0  0  0  0  0  0  0  0  0  0  0  0
   -4.9756    6.9476   -2.3413 H   0  0  0  0  0  0  0  0  0  0  0  0
   -5.2008    3.1448   -0.5934 H   0  0  0  0  0  0  0  0  0  0  0  0
   -4.3082   -0.0648   -2.0210 H   0  0  0  0  0  0  0  0  0  0  0  0
   -2.3456    0.8904   -1.7202 H   0  0  0  0  0  0  0  0  0  0  0  0
   -2.5011   -1.2675   -0.5991 H   0  0  0  0  0  0  0  0  0  0  0  0
   -2.1485   -0.5628    0.9587 H   0  0  0  0  0  0  0  0  0  0  0  0
   -0.1419   -1.5878    0.0460 H   0  0  0  0  0  0  0  0  0  0  0  0
   -0.2924   -0.7046   -1.4716 H   0  0  0  0  0  0  0  0  0  0  0  0
   -0.0187    1.8741   -1.4225 H   0  0  0  0  0  0  0  0  0  0  0  0
   -3.0387    2.3802    1.6589 H   0  0  0  0  0  0  0  0  0  0  0  0
   -1.6251    1.4099    2.0628 H   0  0  0  0  0  0  0  0  0  0  0  0
   -1.4862    3.1613    1.8731 H   0  0  0  0  0  0  0  0  0  0  0  0
   -2.4920    4.0206   -2.4769 H   0  0  0  0  0  0  0  0  0  0  0  0
    0.3583    4.0007   -0.1921 H   0  0  0  0  0  0  0  0  0  0  0  0
    0.7019    3.1237    1.2789 H   0  0  0  0  0  0  0  0  0  0  0  0
    2.7777    3.6759    0.1681 H   0  0  0  0  0  0  0  0  0  0  0  0
    2.1903    3.0879   -1.3454 H   0  0  0  0  0  0  0  0  0  0  0  0
    3.1241    1.2289   -1.0817 H   0  0  0  0  0  0  0  0  0  0  0  0
    0.9824    1.2590    2.1930 H   0  0  0  0  0  0  0  0  0  0  0  0
    0.7453   -0.5066    2.0938 H   0  0  0  0  0  0  0  0  0  0  0  0
    2.2558   -1.7258    0.8761 H   0  0  0  0  0  0  0  0  0  0  0  0
    2.0863   -1.4594   -0.8537 H   0  0  0  0  0  0  0  0  0  0  0  0
    4.2430   -0.6596   -1.1250 H   0  0  0  0  0  0  0  0  0  0  0  0
    4.4098   -1.9935   -0.0186 H   0  0  0  0  0  0  0  0  0  0  0  0
    3.5380    3.1538    2.1126 H   0  0  0  0  0  0  0  0  0  0  0  0
    3.1011    1.5890    2.7802 H   0  0  0  0  0  0  0  0  0  0  0  0
    4.7739    2.1328    2.8083 H   0  0  0  0  0  0  0  0  0  0  0  0
    5.1544    2.1904   -0.9738 H   0  0  0  0  0  0  0  0  0  0  0  0
    5.1860    3.3486    0.3595 H   0  0  0  0  0  0  0  0  0  0  0  0
    6.7323    1.9092    1.6355 H   0  0  0  0  0  0  0  0  0  0  0  0
    7.3486    1.9909   -0.0273 H   0  0  0  0  0  0  0  0  0  0  0  0
    6.2871   -0.0357   -0.6480 H   0  0  0  0  0  0  0  0  0  0  0  0
    7.2897   -0.6760    2.1671 H   0  0  0  0  0  0  0  0  0  0  0  0
    6.2091   -2.5854    1.0754 H   0  0  0  0  0  0  0  0  0  0  0  0
    7.6772   -4.1850    1.5664 H   0  0  0  0  0  0  0  0  0  0  0  0
    8.5017   -2.8367    2.3344 H   0  0  0  0  0  0  0  0  0  0  0  0
   10.2334   -3.9493    0.9889 H   0  0  0  0  0  0  0  0  0  0  0  0
   10.8770   -2.7397   -2.2047 H   0  0  0  0  0  0  0  0  0  0  0  0
   10.2329   -4.3776   -2.4661 H   0  0  0  0  0  0  0  0  0  0  0  0
   11.3507   -4.0677   -1.1370 H   0  0  0  0  0  0  0  0  0  0  0  0
    8.9291    0.7632    1.0790 H   0  0  0  0  0  0  0  0  0  0  0  0
    9.5466   -0.8622    1.1368 H   0  0  0  0  0  0  0  0  0  0  0  0
    8.8989   -0.2258   -0.3897 H   0  0  0  0  0  0  0  0  0  0  0  0
    5.2226   -0.0667    3.0511 H   0  0  0  0  0  0  0  0  0  0  0  0
    3.5755   -0.5974    2.6799 H   0  0  0  0  0  0  0  0  0  0  0  0
    4.9189   -1.6599    2.3711 H   0  0  0  0  0  0  0  0  0  0  0  0
   -6.2878    0.6029    0.1063 H   0  0  0  0  0  0  0  0  0  0  0  0
   -7.0572    0.7716   -2.8660 H   0  0  0  0  0  0  0  0  0  0  0  0
   -7.4990    3.0827   -2.5592 H   0  0  0  0  0  0  0  0  0  0  0  0
   -8.5577    2.6016   -0.5761 H   0  0  0  0  0  0  0  0  0  0  0  0
   -8.5146   -0.2492   -1.3988 H   0  0  0  0  0  0  0  0  0  0  0  0
   -6.9432   -1.2216    0.8140 H   0  0  0  0  0  0  0  0  0  0  0  0
   -4.9276   -3.9400   -0.6141 H   0  0  0  0  0  0  0  0  0  0  0  0
   -2.7549   -3.3433    0.3630 H   0  0  0  0  0  0  0  0  0  0  0  0
   -3.2558   -4.9438    0.9284 H   0  0  0  0  0  0  0  0  0  0  0  0
   -4.1485   -3.6254    2.7873 H   0  0  0  0  0  0  0  0  0  0  0  0
   -5.8247   -5.4772    1.0489 H   0  0  0  0  0  0  0  0  0  0  0  0
   -7.9574   -4.9205    0.4823 H   0  0  0  0  0  0  0  0  0  0  0  0
   -7.1073   -3.4592   -1.2601 H   0  0  0  0  0  0  0  0  0  0  0  0
   -9.2500   -3.1984   -1.0166 H   0  0  0  0  0  0  0  0  0  0  0  0
   -8.9058   -3.0377    1.5979 H   0  0  0  0  0  0  0  0  0  0  0  0
   -6.7013   -3.8965    2.9644 H   0  0  0  0  0  0  0  0  0  0  0  0
  1  2  1  0
  2  3  1  0
  3  4  2  0
  3  5  1  0
  5  6  1  0
  6  7  1  0
  7  8  1  0
  8  9  1  0
  9 10  1  0
 10 11  1  0
 11 12  1  0
 12 13  1  0
 13 14  1  0
 14 15  1  0
 14 16  1  0
 16 17  2  0
 16 18  1  0
 13 19  1  0
 19 20  1  0
 20 21  1  0
 21 22  1  0
 22 23  1  0
 22 24  1  0
 24 25  1  0
 25 26  1  0
 26 27  1  0
 27 28  1  0
 27 29  1  0
 29 30  1  0
 30 31  1  0
 31 32  1  0
 32 33  1  0
 33 34  1  0
 34 35  1  0
 35 36  2  0
 36 37  1  0
 37 38  2  0
 37 39  1  0
 36 40  1  0
 32 41  1  0
 26 42  1  0
  7 43  1  0
 43 44  1  0
 44 45  1  0
 45 46  1  0
 44 47  1  0
 43 48  1  0
 48 49  1  0
 49 50  1  0
 50 51  1  0
 51 52  1  0
 52 53  1  0
 51 54  1  0
 54 55  1  0
 55 56  1  0
 56 57  1  0
 55 58  1  0
 54 59  1  0
 45  5  1  0
 56 49  1  0
 14  9  1  0
 27 21  1  0
 39 33  1  0
 23 12  1  0
 31 26  1  0
 22 12  1  0
  1 60  1  0
  1 61  1  0
  1 62  1  0
  5 63  1  0
  7 64  1  0
  9 65  1  0
 10 66  1  0
 10 67  1  0
 11 68  1  0
 11 69  1  0
 13 70  1  0
 15 71  1  0
 15 72  1  0
 15 73  1  0
 18 74  1  0
 19 75  1  0
 19 76  1  0
 20 77  1  0
 20 78  1  0
 21 79  1  0
 23 80  1  0
 23 81  1  0
 24 82  1  0
 24 83  1  0
 25 84  1  0
 25 85  1  0
 28 86  1  0
 28 87  1  0
 28 88  1  0
 29 89  1  0
 29 90  1  0
 30 91  1  0
 30 92  1  0
 31 93  1  0
 32 94  1  0
 33 95  1  0
 34 96  1  0
 34 97  1  0
 35 98  1  0
 40 99  1  0
 40100  1  0
 40101  1  0
 41102  1  0
 41103  1  0
 41104  1  0
 42105  1  0
 42106  1  0
 42107  1  0
 43108  1  0
 44109  1  0
 45110  1  0
 46111  1  0
 47112  1  0
 49113  1  0
 51114  1  0
 52115  1  0
 52116  1  0
 53117  1  0
 54118  1  0
 55119  1  0
 56120  1  0
 57121  1  0
 58122  1  0
 59123  1  0
M  END
