
     RDKit          3D

121128  0  0  0  0  0  0  0  0999 V2000
   -3.8971    3.5812   -5.3142 O   0  0  0  0  0  0  0  0  0  0  0  0
   -3.4937    2.8381   -4.1695 C   0  0  0  0  0  0  0  0  0  0  0  0
   -4.6580    2.6617   -3.1767 C   0  0  0  0  0  0  0  0  0  0  0  0
   -4.1945    2.0740   -1.9537 O   0  0  0  0  0  0  0  0  0  0  0  0
   -3.8972    0.6750   -2.0365 C   0  0  0  0  0  0  0  0  0  0  0  0
   -3.5327    0.1914   -0.7386 O   0  0  0  0  0  0  0  0  0  0  0  0
   -2.1231    0.1424   -0.4938 C   0  0  0  0  0  0  0  0  0  0  0  0
   -1.4801    1.5371   -0.4896 C   0  0  0  0  0  0  0  0  0  0  0  0
   -0.1083    1.5872    0.1858 C   0  0  0  0  0  0  0  0  0  0  0  0
    0.5411    0.2227    0.2383 C   0  0  0  0  0  0  0  0  0  0  0  0
   -0.2965   -0.8560    0.9474 C   0  0  0  0  0  0  0  0  0  0  0  0
   -1.8434   -0.6539    0.8059 C   0  0  0  0  0  0  0  0  0  0  0  0
   -2.4868   -2.0635    0.6996 C   0  0  0  0  0  0  0  0  0  0  0  0
   -2.4744    0.1022    1.9840 C   0  0  0  0  0  0  0  0  0  0  0  0
   -2.0364    1.0969    2.5408 O   0  0  0  0  0  0  0  0  0  0  0  0
   -3.6418   -0.4135    2.4244 O   0  0  0  0  0  0  0  0  0  0  0  0
    0.2144   -1.0017    2.3948 C   0  0  0  0  0  0  0  0  0  0  0  0
    1.7110   -1.3677    2.4913 C   0  0  0  0  0  0  0  0  0  0  0  0
    2.4907   -1.2388    1.1620 C   0  0  0  0  0  0  0  0  0  0  0  0
    2.0595    0.0412    0.4338 C   0  0  0  0  0  0  0  0  0  0  0  0
    1.4323   -0.1317   -0.9330 C   0  0  0  0  0  0  0  0  0  0  0  0
    2.8741    1.2697    0.7546 C   0  0  0  0  0  0  0  0  0  0  0  0
    4.3661    1.0271    0.5825 C   0  0  0  0  0  0  0  0  0  0  0  0
    4.9036   -0.1252    1.4694 C   0  0  0  0  0  0  0  0  0  0  0  0
    4.0470   -1.4390    1.2395 C   0  0  0  0  0  0  0  0  0  0  0  0
    4.3772   -2.5709    2.2487 C   0  0  0  0  0  0  0  0  0  0  0  0
    4.5702   -1.9053   -0.1419 C   0  0  0  0  0  0  0  0  0  0  0  0
    6.0365   -1.4849   -0.2235 C   0  0  0  0  0  0  0  0  0  0  0  0
    6.3363   -0.5730    0.9900 C   0  0  0  0  0  0  0  0  0  0  0  0
    7.4698    0.4748    0.6689 C   0  0  0  0  0  0  0  0  0  0  0  0
    7.8702    1.3320    1.9181 C   0  0  0  0  0  0  0  0  0  0  0  0
    9.3310    1.7696    2.0840 C   0  0  0  0  0  0  0  0  0  0  0  0
    9.6647    2.8575    1.1191 C   0  0  0  0  0  0  0  0  0  0  0  0
    8.7216    3.7026    0.6749 C   0  0  0  0  0  0  0  0  0  0  0  0
    7.3341    3.6106    1.2020 C   0  0  0  0  0  0  0  0  0  0  0  0
    6.5065    4.4884    0.9900 O   0  0  0  0  0  0  0  0  0  0  0  0
    7.0387    2.5190    1.9566 O   0  0  0  0  0  0  0  0  0  0  0  0
    8.9973    4.8184   -0.2819 C   0  0  0  0  0  0  0  0  0  0  0  0
    8.6883   -0.2615    0.0729 C   0  0  0  0  0  0  0  0  0  0  0  0
    4.8971    0.3066    2.9466 C   0  0  0  0  0  0  0  0  0  0  0  0
   -5.1232   -0.1319   -2.5123 C   0  0  0  0  0  0  0  0  0  0  0  0
   -5.5805    0.4045   -3.8726 C   0  0  0  0  0  0  0  0  0  0  0  0
   -5.8817    1.9107   -3.7624 C   0  0  0  0  0  0  0  0  0  0  0  0
   -6.3222    2.4462   -5.0101 O   0  0  0  0  0  0  0  0  0  0  0  0
   -6.7229   -0.3364   -4.3241 O   0  0  0  0  0  0  0  0  0  0  0  0
   -6.2121    0.0429   -1.5720 O   0  0  0  0  0  0  0  0  0  0  0  0
   -6.6219   -1.1878   -0.9726 C   0  0  0  0  0  0  0  0  0  0  0  0
   -7.3354   -1.9299   -1.9636 O   0  0  0  0  0  0  0  0  0  0  0  0
   -7.8929   -3.1684   -1.4896 C   0  0  0  0  0  0  0  0  0  0  0  0
   -6.7836   -4.2044   -1.2365 C   0  0  0  0  0  0  0  0  0  0  0  0
   -5.8508   -4.2225   -2.3207 O   0  0  0  0  0  0  0  0  0  0  0  0
   -8.8328   -2.9404   -0.3013 C   0  0  0  0  0  0  0  0  0  0  0  0
   -8.1544   -2.1125    0.7986 C   0  0  0  0  0  0  0  0  0  0  0  0
   -7.5326   -0.8419    0.2197 C   0  0  0  0  0  0  0  0  0  0  0  0
   -8.6105    0.0264   -0.1928 O   0  0  0  0  0  0  0  0  0  0  0  0
   -9.1399   -1.7773    1.7871 O   0  0  0  0  0  0  0  0  0  0  0  0
   -9.2870   -4.1774    0.2485 O   0  0  0  0  0  0  0  0  0  0  0  0
   -3.7740    4.5239   -5.0975 H   0  0  0  0  0  0  0  0  0  0  0  0
   -3.1212    1.8734   -4.5233 H   0  0  0  0  0  0  0  0  0  0  0  0
   -2.6463    3.3412   -3.6935 H   0  0  0  0  0  0  0  0  0  0  0  0
   -5.0065    3.6726   -2.9288 H   0  0  0  0  0  0  0  0  0  0  0  0
   -3.0710    0.5137   -2.7400 H   0  0  0  0  0  0  0  0  0  0  0  0
   -1.6774   -0.4338   -1.3209 H   0  0  0  0  0  0  0  0  0  0  0  0
   -1.3677    1.8643   -1.5307 H   0  0  0  0  0  0  0  0  0  0  0  0
   -2.1448    2.2791   -0.0333 H   0  0  0  0  0  0  0  0  0  0  0  0
    0.5046    2.3154   -0.3541 H   0  0  0  0  0  0  0  0  0  0  0  0
   -0.1963    1.9811    1.2029 H   0  0  0  0  0  0  0  0  0  0  0  0
   -0.0681   -1.8029    0.4356 H   0  0  0  0  0  0  0  0  0  0  0  0
   -3.5745   -2.0179    0.5733 H   0  0  0  0  0  0  0  0  0  0  0  0
   -2.0899   -2.6191   -0.1556 H   0  0  0  0  0  0  0  0  0  0  0  0
   -2.2911   -2.6505    1.6055 H   0  0  0  0  0  0  0  0  0  0  0  0
   -3.8897    0.1909    3.1579 H   0  0  0  0  0  0  0  0  0  0  0  0
   -0.3739   -1.7491    2.9388 H   0  0  0  0  0  0  0  0  0  0  0  0
    0.0910   -0.0538    2.9299 H   0  0  0  0  0  0  0  0  0  0  0  0
    2.1565   -0.7519    3.2757 H   0  0  0  0  0  0  0  0  0  0  0  0
    1.7778   -2.4034    2.8461 H   0  0  0  0  0  0  0  0  0  0  0  0
    2.1385   -2.0937    0.5624 H   0  0  0  0  0  0  0  0  0  0  0  0
    1.3561   -1.1272   -1.3608 H   0  0  0  0  0  0  0  0  0  0  0  0
    1.6457    0.6218   -1.6851 H   0  0  0  0  0  0  0  0  0  0  0  0
    2.6510    1.5988    1.7748 H   0  0  0  0  0  0  0  0  0  0  0  0
    2.6047    2.1036    0.0975 H   0  0  0  0  0  0  0  0  0  0  0  0
    4.8884    1.9597    0.8101 H   0  0  0  0  0  0  0  0  0  0  0  0
    4.5647    0.8281   -0.4776 H   0  0  0  0  0  0  0  0  0  0  0  0
    3.7928   -3.4697    2.0174 H   0  0  0  0  0  0  0  0  0  0  0  0
    5.4289   -2.8726    2.2185 H   0  0  0  0  0  0  0  0  0  0  0  0
    4.1493   -2.2856    3.2805 H   0  0  0  0  0  0  0  0  0  0  0  0
    4.4620   -2.9872   -0.2872 H   0  0  0  0  0  0  0  0  0  0  0  0
    4.0241   -1.4315   -0.9640 H   0  0  0  0  0  0  0  0  0  0  0  0
    6.6875   -2.3671   -0.2083 H   0  0  0  0  0  0  0  0  0  0  0  0
    6.2020   -0.9702   -1.1743 H   0  0  0  0  0  0  0  0  0  0  0  0
    6.7591   -1.2182    1.7746 H   0  0  0  0  0  0  0  0  0  0  0  0
    7.0889    1.1458   -0.1131 H   0  0  0  0  0  0  0  0  0  0  0  0
    7.6296    0.7558    2.8198 H   0  0  0  0  0  0  0  0  0  0  0  0
    9.4803    2.1715    3.0943 H   0  0  0  0  0  0  0  0  0  0  0  0
   10.0175    0.9245    1.9810 H   0  0  0  0  0  0  0  0  0  0  0  0
   10.6964    2.9511    0.7925 H   0  0  0  0  0  0  0  0  0  0  0  0
   10.0428    4.8227   -0.6091 H   0  0  0  0  0  0  0  0  0  0  0  0
    8.7934    5.7872    0.1882 H   0  0  0  0  0  0  0  0  0  0  0  0
    8.3701    4.7218   -1.1744 H   0  0  0  0  0  0  0  0  0  0  0  0
    9.4889    0.4298   -0.1998 H   0  0  0  0  0  0  0  0  0  0  0  0
    8.4337   -0.7802   -0.8571 H   0  0  0  0  0  0  0  0  0  0  0  0
    9.0849   -1.0019    0.7742 H   0  0  0  0  0  0  0  0  0  0  0  0
    5.4360   -0.4009    3.5815 H   0  0  0  0  0  0  0  0  0  0  0  0
    3.8856    0.3995    3.3413 H   0  0  0  0  0  0  0  0  0  0  0  0
    5.3561    1.2852    3.0946 H   0  0  0  0  0  0  0  0  0  0  0  0
   -4.8614   -1.1957   -2.5922 H   0  0  0  0  0  0  0  0  0  0  0  0
   -4.8045    0.2384   -4.6300 H   0  0  0  0  0  0  0  0  0  0  0  0
   -6.7284    2.0362   -3.0774 H   0  0  0  0  0  0  0  0  0  0  0  0
   -5.5489    2.7895   -5.5061 H   0  0  0  0  0  0  0  0  0  0  0  0
   -7.3399   -0.3961   -3.5663 H   0  0  0  0  0  0  0  0  0  0  0  0
   -5.7426   -1.7442   -0.6259 H   0  0  0  0  0  0  0  0  0  0  0  0
   -8.4895   -3.5546   -2.3246 H   0  0  0  0  0  0  0  0  0  0  0  0
   -7.2015   -5.2081   -1.1264 H   0  0  0  0  0  0  0  0  0  0  0  0
   -6.2151   -3.9773   -0.3327 H   0  0  0  0  0  0  0  0  0  0  0  0
   -6.1529   -3.5631   -2.9765 H   0  0  0  0  0  0  0  0  0  0  0  0
   -9.7257   -2.4022   -0.6507 H   0  0  0  0  0  0  0  0  0  0  0  0
   -7.3941   -2.7168    1.3084 H   0  0  0  0  0  0  0  0  0  0  0  0
   -6.9803   -0.2884    0.9883 H   0  0  0  0  0  0  0  0  0  0  0  0
   -8.1880    0.6900   -0.7757 H   0  0  0  0  0  0  0  0  0  0  0  0
   -9.6096   -0.9878    1.4326 H   0  0  0  0  0  0  0  0  0  0  0  0
   -9.8451   -3.9349    1.0129 H   0  0  0  0  0  0  0  0  0  0  0  0
  1  2  1  0
  2  3  1  0
  3  4  1  0
  4  5  1  0
  5  6  1  0
  6  7  1  0
  7  8  1  0
  8  9  1  0
  9 10  1  0
 10 11  1  0
 11 12  1  0
 12 13  1  0
 12 14  1  0
 14 15  2  0
 14 16  1  0
 11 17  1  0
 17 18  1  0
 18 19  1  0
 19 20  1  0
 20 21  1  0
 20 22  1  0
 22 23  1  0
 23 24  1  0
 24 25  1  0
 25 26  1  0
 25 27  1  0
 27 28  1  0
 28 29  1  0
 29 30  1  0
 30 31  1  0
 31 32  1  0
 32 33  1  0
 33 34  2  0
 34 35  1  0
 35 36  2  0
 35 37  1  0
 34 38  1  0
 30 39  1  0
 24 40  1  0
  5 41  1  0
 41 42  1  0
 42 43  1  0
 43 44  1  0
 42 45  1  0
 41 46  1  0
 46 47  1  0
 47 48  1  0
 48 49  1  0
 49 50  1  0
 50 51  1  0
 49 52  1  0
 52 53  1  0
 53 54  1  0
 54 55  1  0
 53 56  1  0
 52 57  1  0
 43  3  1  0
 54 47  1  0
 12  7  1  0
 25 19  1  0
 37 31  1  0
 21 10  1  0
 29 24  1  0
 20 10  1  0
  1 58  1  0
  2 59  1  0
  2 60  1  0
  3 61  1  0
  5 62  1  0
  7 63  1  0
  8 64  1  0
  8 65  1  0
  9 66  1  0
  9 67  1  0
 11 68  1  0
 13 69  1  0
 13 70  1  0
 13 71  1  0
 16 72  1  0
 17 73  1  0
 17 74  1  0
 18 75  1  0
 18 76  1  0
 19 77  1  0
 21 78  1  0
 21 79  1  0
 22 80  1  0
 22 81  1  0
 23 82  1  0
 23 83  1  0
 26 84  1  0
 26 85  1  0
 26 86  1  0
 27 87  1  0
 27 88  1  0
 28 89  1  0
 28 90  1  0
 29 91  1  0
 30 92  1  0
 31 93  1  0
 32 94  1  0
 32 95  1  0
 33 96  1  0
 38 97  1  0
 38 98  1  0
 38 99  1  0
 39100  1  0
 39101  1  0
 39102  1  0
 40103  1  0
 40104  1  0
 40105  1  0
 41106  1  0
 42107  1  0
 43108  1  0
 44109  1  0
 45110  1  0
 47111  1  0
 49112  1  0
 50113  1  0
 50114  1  0
 51115  1  0
 52116  1  0
 53117  1  0
 54118  1  0
 55119  1  0
 56120  1  0
 57121  1  0
M  END
