
     RDKit          3D

120127  0  0  0  0  0  0  0  0999 V2000
   -9.3143    3.8475    2.0849 O   0  0  0  0  0  0  0  0  0  0  0  0
   -8.1936    3.0883    2.5340 C   0  0  0  0  0  0  0  0  0  0  0  0
   -7.6244    2.1093    1.4858 C   0  0  0  0  0  0  0  0  0  0  0  0
   -6.5975    1.3123    2.0993 O   0  0  0  0  0  0  0  0  0  0  0  0
   -6.9136   -0.0619    2.3290 C   0  0  0  0  0  0  0  0  0  0  0  0
   -6.7155   -0.8326    1.1416 O   0  0  0  0  0  0  0  0  0  0  0  0
   -5.3395   -1.1820    0.8754 C   0  0  0  0  0  0  0  0  0  0  0  0
   -4.4556    0.0140    0.4673 C   0  0  0  0  0  0  0  0  0  0  0  0
   -4.9824    0.6557   -0.6882 O   0  0  0  0  0  0  0  0  0  0  0  0
   -5.1130   -0.1912   -1.8486 C   0  0  0  0  0  0  0  0  0  0  0  0
   -5.9078   -1.4721   -1.5643 C   0  0  0  0  0  0  0  0  0  0  0  0
   -5.3828   -2.1617   -0.2969 C   0  0  0  0  0  0  0  0  0  0  0  0
   -6.2521   -3.2725    0.0080 O   0  0  0  0  0  0  0  0  0  0  0  0
   -5.8130   -2.4107   -2.6425 O   0  0  0  0  0  0  0  0  0  0  0  0
   -5.8676    0.6472   -2.8694 C   0  0  0  0  0  0  0  0  0  0  0  0
   -6.5691    1.6247   -2.6380 O   0  0  0  0  0  0  0  0  0  0  0  0
   -5.7154    0.2351   -4.1393 O   0  0  0  0  0  0  0  0  0  0  0  0
   -3.1213   -0.4301    0.2308 O   0  0  0  0  0  0  0  0  0  0  0  0
   -2.0945    0.4538    0.7158 C   0  0  0  0  0  0  0  0  0  0  0  0
   -1.2520   -0.3775    1.6857 C   0  0  0  0  0  0  0  0  0  0  0  0
   -0.6449   -1.5720    0.9679 C   0  0  0  0  0  0  0  0  0  0  0  0
    0.2045   -1.1716   -0.2346 C   0  0  0  0  0  0  0  0  0  0  0  0
   -0.5114   -0.2006   -1.2049 C   0  0  0  0  0  0  0  0  0  0  0  0
   -1.2133    0.9935   -0.4488 C   0  0  0  0  0  0  0  0  0  0  0  0
   -0.2068    2.0246    0.1008 C   0  0  0  0  0  0  0  0  0  0  0  0
   -2.1619    1.7430   -1.3854 C   0  0  0  0  0  0  0  0  0  0  0  0
   -2.4277    1.4736   -2.5459 O   0  0  0  0  0  0  0  0  0  0  0  0
   -2.7658    2.7982   -0.7946 O   0  0  0  0  0  0  0  0  0  0  0  0
    0.4029    0.2343   -2.3758 C   0  0  0  0  0  0  0  0  0  0  0  0
    1.8364    0.5839   -1.9929 C   0  0  0  0  0  0  0  0  0  0  0  0
    2.5940   -0.5996   -1.3733 C   0  0  0  0  0  0  0  0  0  0  0  0
    1.7644   -1.2557   -0.2455 C   0  0  0  0  0  0  0  0  0  0  0  0
    0.8958   -2.3798   -0.7996 C   0  0  0  0  0  0  0  0  0  0  0  0
    2.4429   -1.5467    1.0750 C   0  0  0  0  0  0  0  0  0  0  0  0
    3.7569   -0.8403    1.2960 C   0  0  0  0  0  0  0  0  0  0  0  0
    4.7588   -0.9801    0.1174 C   0  0  0  0  0  0  0  0  0  0  0  0
    4.1220   -0.2865   -1.1354 C   0  0  0  0  0  0  0  0  0  0  0  0
    4.8447   -0.6642   -2.4659 C   0  0  0  0  0  0  0  0  0  0  0  0
    4.4469    1.2030   -0.8560 C   0  0  0  0  0  0  0  0  0  0  0  0
    5.8820    1.1975   -0.3280 C   0  0  0  0  0  0  0  0  0  0  0  0
    6.0086   -0.0871    0.5137 C   0  0  0  0  0  0  0  0  0  0  0  0
    7.4287   -0.7411    0.5796 C   0  0  0  0  0  0  0  0  0  0  0  0
    8.3612    0.0649    1.5494 C   0  0  0  0  0  0  0  0  0  0  0  0
    9.6738   -0.6340    1.9191 C   0  0  0  0  0  0  0  0  0  0  0  0
   10.7758   -0.3082    0.9738 C   0  0  0  0  0  0  0  0  0  0  0  0
   10.7529    0.8002    0.2170 C   0  0  0  0  0  0  0  0  0  0  0  0
    9.6411    1.7769    0.3364 C   0  0  0  0  0  0  0  0  0  0  0  0
    9.6933    2.8696   -0.2147 O   0  0  0  0  0  0  0  0  0  0  0  0
    8.5753    1.4156    1.0896 O   0  0  0  0  0  0  0  0  0  0  0  0
   11.8401    1.1474   -0.7521 C   0  0  0  0  0  0  0  0  0  0  0  0
    8.0804   -0.9946   -0.7814 C   0  0  0  0  0  0  0  0  0  0  0  0
    5.0477   -2.4774   -0.0876 C   0  0  0  0  0  0  0  0  0  0  0  0
   -8.3723   -0.2239    2.7857 C   0  0  0  0  0  0  0  0  0  0  0  0
   -9.3328    0.2313    1.6744 C   0  0  0  0  0  0  0  0  0  0  0  0
   -8.6933    1.2802    0.7482 C   0  0  0  0  0  0  0  0  0  0  0  0
   -9.6984    2.1066    0.1476 O   0  0  0  0  0  0  0  0  0  0  0  0
  -10.5262    0.7259    2.3031 O   0  0  0  0  0  0  0  0  0  0  0  0
   -8.6659   -1.5715    3.1691 O   0  0  0  0  0  0  0  0  0  0  0  0
   -9.3750    3.7354    1.1092 H   0  0  0  0  0  0  0  0  0  0  0  0
   -7.4032    3.7911    2.8347 H   0  0  0  0  0  0  0  0  0  0  0  0
   -8.4916    2.5698    3.4487 H   0  0  0  0  0  0  0  0  0  0  0  0
   -7.1328    2.7340    0.7308 H   0  0  0  0  0  0  0  0  0  0  0  0
   -6.2526   -0.4421    3.1167 H   0  0  0  0  0  0  0  0  0  0  0  0
   -4.9287   -1.7006    1.7510 H   0  0  0  0  0  0  0  0  0  0  0  0
   -4.4675    0.7409    1.2817 H   0  0  0  0  0  0  0  0  0  0  0  0
   -4.1190   -0.4111   -2.2493 H   0  0  0  0  0  0  0  0  0  0  0  0
   -6.9760   -1.2460   -1.4486 H   0  0  0  0  0  0  0  0  0  0  0  0
   -4.3931   -2.5951   -0.4872 H   0  0  0  0  0  0  0  0  0  0  0  0
   -7.0270   -2.8911    0.4656 H   0  0  0  0  0  0  0  0  0  0  0  0
   -6.1001   -3.2713   -2.2727 H   0  0  0  0  0  0  0  0  0  0  0  0
   -6.2291    0.8794   -4.6628 H   0  0  0  0  0  0  0  0  0  0  0  0
   -2.5261    1.2897    1.2809 H   0  0  0  0  0  0  0  0  0  0  0  0
   -0.4690    0.2328    2.1476 H   0  0  0  0  0  0  0  0  0  0  0  0
   -1.8912   -0.7510    2.4948 H   0  0  0  0  0  0  0  0  0  0  0  0
   -0.0828   -2.1717    1.6914 H   0  0  0  0  0  0  0  0  0  0  0  0
   -1.4427   -2.2376    0.6152 H   0  0  0  0  0  0  0  0  0  0  0  0
   -1.3154   -0.7887   -1.6693 H   0  0  0  0  0  0  0  0  0  0  0  0
   -0.6805    2.6971    0.8245 H   0  0  0  0  0  0  0  0  0  0  0  0
    0.6356    1.5442    0.6072 H   0  0  0  0  0  0  0  0  0  0  0  0
    0.1801    2.6672   -0.6977 H   0  0  0  0  0  0  0  0  0  0  0  0
   -3.4210    3.1020   -1.4605 H   0  0  0  0  0  0  0  0  0  0  0  0
   -0.0298    1.0778   -2.9192 H   0  0  0  0  0  0  0  0  0  0  0  0
    0.4406   -0.5878   -3.1015 H   0  0  0  0  0  0  0  0  0  0  0  0
    1.8506    1.4384   -1.3191 H   0  0  0  0  0  0  0  0  0  0  0  0
    2.3513    0.9104   -2.9044 H   0  0  0  0  0  0  0  0  0  0  0  0
    2.6036   -1.3668   -2.1613 H   0  0  0  0  0  0  0  0  0  0  0  0
    0.8192   -2.5553   -1.8700 H   0  0  0  0  0  0  0  0  0  0  0  0
    0.8647   -3.3206   -0.2558 H   0  0  0  0  0  0  0  0  0  0  0  0
    1.7983   -1.2449    1.9061 H   0  0  0  0  0  0  0  0  0  0  0  0
    2.5876   -2.6274    1.1881 H   0  0  0  0  0  0  0  0  0  0  0  0
    4.2099   -1.2357    2.2157 H   0  0  0  0  0  0  0  0  0  0  0  0
    3.5436    0.2159    1.5067 H   0  0  0  0  0  0  0  0  0  0  0  0
    4.4274   -0.0971   -3.3069 H   0  0  0  0  0  0  0  0  0  0  0  0
    4.7293   -1.7277   -2.7019 H   0  0  0  0  0  0  0  0  0  0  0  0
    5.9122   -0.4438   -2.4531 H   0  0  0  0  0  0  0  0  0  0  0  0
    4.3679    1.8324   -1.7498 H   0  0  0  0  0  0  0  0  0  0  0  0
    3.7794    1.6323   -0.0992 H   0  0  0  0  0  0  0  0  0  0  0  0
    6.5867    1.2212   -1.1619 H   0  0  0  0  0  0  0  0  0  0  0  0
    6.0703    2.0932    0.2714 H   0  0  0  0  0  0  0  0  0  0  0  0
    5.8242    0.2412    1.5461 H   0  0  0  0  0  0  0  0  0  0  0  0
    7.3022   -1.7204    1.0589 H   0  0  0  0  0  0  0  0  0  0  0  0
    7.8114    0.1696    2.4952 H   0  0  0  0  0  0  0  0  0  0  0  0
    9.5268   -1.7174    1.9760 H   0  0  0  0  0  0  0  0  0  0  0  0
    9.9918   -0.3102    2.9192 H   0  0  0  0  0  0  0  0  0  0  0  0
   11.6120   -1.0022    0.9137 H   0  0  0  0  0  0  0  0  0  0  0  0
   12.6266    0.3867   -0.7712 H   0  0  0  0  0  0  0  0  0  0  0  0
   12.3077    2.1019   -0.4853 H   0  0  0  0  0  0  0  0  0  0  0  0
   11.4343    1.2292   -1.7680 H   0  0  0  0  0  0  0  0  0  0  0  0
    7.4295   -1.5430   -1.4581 H   0  0  0  0  0  0  0  0  0  0  0  0
    8.9752   -1.6151   -0.6729 H   0  0  0  0  0  0  0  0  0  0  0  0
    8.3722   -0.0723   -1.2885 H   0  0  0  0  0  0  0  0  0  0  0  0
    5.3776   -2.9487    0.8434 H   0  0  0  0  0  0  0  0  0  0  0  0
    5.8152   -2.6652   -0.8365 H   0  0  0  0  0  0  0  0  0  0  0  0
    4.1604   -3.0191   -0.4295 H   0  0  0  0  0  0  0  0  0  0  0  0
   -8.5267    0.3810    3.6854 H   0  0  0  0  0  0  0  0  0  0  0  0
   -9.6588   -0.6223    1.0679 H   0  0  0  0  0  0  0  0  0  0  0  0
   -8.1899    0.7537   -0.0718 H   0  0  0  0  0  0  0  0  0  0  0  0
  -10.2385    1.5311   -0.4271 H   0  0  0  0  0  0  0  0  0  0  0  0
  -10.7323    1.6035    1.9020 H   0  0  0  0  0  0  0  0  0  0  0  0
   -9.6107   -1.5846    3.4182 H   0  0  0  0  0  0  0  0  0  0  0  0
  1  2  1  0
  2  3  1  0
  3  4  1  0
  4  5  1  0
  5  6  1  0
  6  7  1  0
  7  8  1  0
  8  9  1  0
  9 10  1  0
 10 11  1  0
 11 12  1  0
 12 13  1  0
 11 14  1  0
 10 15  1  0
 15 16  2  0
 15 17  1  0
  8 18  1  0
 18 19  1  0
 19 20  1  0
 20 21  1  0
 21 22  1  0
 22 23  1  0
 23 24  1  0
 24 25  1  0
 24 26  1  0
 26 27  2  0
 26 28  1  0
 23 29  1  0
 29 30  1  0
 30 31  1  0
 31 32  1  0
 32 33  1  0
 32 34  1  0
 34 35  1  0
 35 36  1  0
 36 37  1  0
 37 38  1  0
 37 39  1  0
 39 40  1  0
 40 41  1  0
 41 42  1  0
 42 43  1  0
 43 44  1  0
 44 45  1  0
 45 46  2  0
 46 47  1  0
 47 48  2  0
 47 49  1  0
 46 50  1  0
 42 51  1  0
 36 52  1  0
  5 53  1  0
 53 54  1  0
 54 55  1  0
 55 56  1  0
 54 57  1  0
 53 58  1  0
 55  3  1  0
 12  7  1  0
 24 19  1  0
 37 31  1  0
 49 43  1  0
 33 22  1  0
 41 36  1  0
 32 22  1  0
  1 59  1  0
  2 60  1  0
  2 61  1  0
  3 62  1  0
  5 63  1  0
  7 64  1  0
  8 65  1  0
 10 66  1  0
 11 67  1  0
 12 68  1  0
 13 69  1  0
 14 70  1  0
 17 71  1  0
 19 72  1  0
 20 73  1  0
 20 74  1  0
 21 75  1  0
 21 76  1  0
 23 77  1  0
 25 78  1  0
 25 79  1  0
 25 80  1  0
 28 81  1  0
 29 82  1  0
 29 83  1  0
 30 84  1  0
 30 85  1  0
 31 86  1  0
 33 87  1  0
 33 88  1  0
 34 89  1  0
 34 90  1  0
 35 91  1  0
 35 92  1  0
 38 93  1  0
 38 94  1  0
 38 95  1  0
 39 96  1  0
 39 97  1  0
 40 98  1  0
 40 99  1  0
 41100  1  0
 42101  1  0
 43102  1  0
 44103  1  0
 44104  1  0
 45105  1  0
 50106  1  0
 50107  1  0
 50108  1  0
 51109  1  0
 51110  1  0
 51111  1  0
 52112  1  0
 52113  1  0
 52114  1  0
 53115  1  0
 54116  1  0
 55117  1  0
 56118  1  0
 57119  1  0
 58120  1  0
M  END
