
     RDKit          3D

 24 24  0  0  0  0  0  0  0  0999 V2000
    3.3434   -0.8475    0.2962 C   0  0  0  0  0  0  0  0  0  0  0  0
    1.8592   -0.7348    0.6083 C   0  0  0  0  0  0  0  0  0  0  0  0
    1.0793   -0.1741   -0.5836 C   0  0  0  0  0  0  0  0  0  0  0  0
   -0.4001   -0.0498   -0.2863 C   0  0  0  0  0  0  0  0  0  0  0  0
   -0.9958    1.0825    0.1485 C   0  0  0  0  0  0  0  0  0  0  0  0
   -0.2783    2.3588    0.4831 C   0  0  0  0  0  0  0  0  0  0  0  0
   -2.3573    1.1915    0.3747 O   0  0  0  0  0  0  0  0  0  0  0  0
   -3.4094    0.1291   -0.2575 S   0  0  0  0  0  6  0  0  0  0  0  0
   -4.4821   -0.0780    0.6892 O   0  0  0  0  0  0  0  0  0  0  0  0
   -3.6850    0.5102   -1.6250 O   0  0  0  0  0  0  0  0  0  0  0  0
   -2.5507   -1.2713   -0.3146 N   0  0  0  0  0  0  0  0  0  0  0  0
   -1.1807   -1.3049   -0.5276 C   0  0  0  0  0  0  0  0  0  0  0  0
   -0.6497   -2.3493   -0.8723 O   0  0  0  0  0  0  0  0  0  0  0  0
    3.5157   -1.5161   -0.5533 H   0  0  0  0  0  0  0  0  0  0  0  0
    3.7691    0.1318    0.0555 H   0  0  0  0  0  0  0  0  0  0  0  0
    3.8827   -1.2493    1.1596 H   0  0  0  0  0  0  0  0  0  0  0  0
    1.7269   -0.0875    1.4836 H   0  0  0  0  0  0  0  0  0  0  0  0
    1.4769   -1.7253    0.8818 H   0  0  0  0  0  0  0  0  0  0  0  0
    1.4966    0.7967   -0.8764 H   0  0  0  0  0  0  0  0  0  0  0  0
    1.2317   -0.8123   -1.4636 H   0  0  0  0  0  0  0  0  0  0  0  0
   -0.6547    2.7629    1.4294 H   0  0  0  0  0  0  0  0  0  0  0  0
   -0.4553    3.1032   -0.2995 H   0  0  0  0  0  0  0  0  0  0  0  0
    0.8003    2.2332    0.6041 H   0  0  0  0  0  0  0  0  0  0  0  0
   -3.0827   -2.0996   -0.5542 H   0  0  0  0  0  0  0  0  0  0  0  0
  1  2  1  0
  2  3  1  0
  3  4  1  0
  4  5  2  0
  5  6  1  0
  5  7  1  0
  7  8  1  0
  8  9  2  0
  8 10  2  0
  8 11  1  0
 11 12  1  0
 12 13  2  0
 12  4  1  0
  1 14  1  0
  1 15  1  0
  1 16  1  0
  2 17  1  0
  2 18  1  0
  3 19  1  0
  3 20  1  0
  6 21  1  0
  6 22  1  0
  6 23  1  0
 11 24  1  0
M  END
