
     RDKit          3D

 18 18  0  0  0  0  0  0  0  0999 V2000
   -2.3275    0.0570    1.0325 C   0  0  0  0  0  0  0  0  0  0  0  0
   -1.7757   -0.0159   -0.3848 C   0  0  0  0  0  0  0  0  0  0  0  0
   -0.2742    0.0952   -0.4189 C   0  0  0  0  0  0  0  0  0  0  0  0
    0.3479    1.2211   -0.7986 C   0  0  0  0  0  0  0  0  0  0  0  0
    1.7022    1.4155   -0.8625 O   0  0  0  0  0  0  0  0  0  0  0  0
    2.7256    0.3594   -0.1653 S   0  0  0  0  0  6  0  0  0  0  0  0
    3.8489    0.1538   -1.0518 O   0  0  0  0  0  0  0  0  0  0  0  0
    2.9262    0.7562    1.2110 O   0  0  0  0  0  0  0  0  0  0  0  0
    1.8834   -1.0570   -0.1330 N   0  0  0  0  0  0  0  0  0  0  0  0
    0.4980   -1.1297   -0.0706 C   0  0  0  0  0  0  0  0  0  0  0  0
   -0.0460   -2.1805    0.2300 O   0  0  0  0  0  0  0  0  0  0  0  0
   -1.9559   -0.7648    1.6529 H   0  0  0  0  0  0  0  0  0  0  0  0
   -2.0512    1.0003    1.5158 H   0  0  0  0  0  0  0  0  0  0  0  0
   -3.4204   -0.0048    1.0141 H   0  0  0  0  0  0  0  0  0  0  0  0
   -2.0950   -0.9509   -0.8605 H   0  0  0  0  0  0  0  0  0  0  0  0
   -2.2277    0.7899   -0.9770 H   0  0  0  0  0  0  0  0  0  0  0  0
   -0.1691    2.1233   -1.1020 H   0  0  0  0  0  0  0  0  0  0  0  0
    2.4104   -1.8682    0.1687 H   0  0  0  0  0  0  0  0  0  0  0  0
  1  2  1  0
  2  3  1  0
  3  4  2  0
  4  5  1  0
  5  6  1  0
  6  7  2  0
  6  8  2  0
  6  9  1  0
  9 10  1  0
 10 11  2  0
 10  3  1  0
  1 12  1  0
  1 13  1  0
  1 14  1  0
  2 15  1  0
  2 16  1  0
  4 17  1  0
  9 18  1  0
M  END
