
     RDKit          3D

 12 12  0  0  0  0  0  0  0  0999 V2000
   -0.7003    2.4531    0.1945 O   0  0  0  0  0  0  0  0  0  0  0  0
   -0.4152    1.2751    0.0507 C   0  0  0  0  0  0  0  0  0  0  0  0
   -1.4562    0.2316    0.0362 C   0  0  0  0  0  0  0  0  0  0  0  0
   -1.1753   -1.0625   -0.1356 C   0  0  0  0  0  0  0  0  0  0  0  0
    0.0795   -1.5909   -0.2876 O   0  0  0  0  0  0  0  0  0  0  0  0
    1.4066   -0.6936    0.0135 S   0  0  0  0  0  6  0  0  0  0  0  0
    2.3645   -0.9221   -1.0450 O   0  0  0  0  0  0  0  0  0  0  0  0
    1.7745   -0.8736    1.4006 O   0  0  0  0  0  0  0  0  0  0  0  0
    0.8981    0.8703   -0.1402 N   0  0  0  0  0  0  0  0  0  0  0  0
   -2.4753    0.5813    0.1537 H   0  0  0  0  0  0  0  0  0  0  0  0
   -1.9269   -1.8400   -0.1775 H   0  0  0  0  0  0  0  0  0  0  0  0
    1.6258    1.5713   -0.0633 H   0  0  0  0  0  0  0  0  0  0  0  0
  1  2  2  0
  2  3  1  0
  3  4  2  0
  4  5  1  0
  5  6  1  0
  6  7  2  0
  6  8  2  0
  6  9  1  0
  9  2  1  0
  3 10  1  0
  4 11  1  0
  9 12  1  0
M  END
