
     RDKit          3D

139147  0  0  0  0  0  0  0  0999 V2000
    2.0448   -5.2849   -0.2603 O   0  0  0  0  0  0  0  0  0  0  0  0
    2.4876   -5.6612   -1.5645 C   0  0  0  0  0  0  0  0  0  0  0  0
    2.4130   -4.4564   -2.5065 C   0  0  0  0  0  0  0  0  0  0  0  0
    3.1959   -3.3960   -1.9181 O   0  0  0  0  0  0  0  0  0  0  0  0
    3.6118   -2.3761   -2.8337 C   0  0  0  0  0  0  0  0  0  0  0  0
    3.5681   -1.1017   -2.1799 O   0  0  0  0  0  0  0  0  0  0  0  0
    4.5400   -0.9761   -1.1271 C   0  0  0  0  0  0  0  0  0  0  0  0
    3.8385   -0.6305    0.2020 C   0  0  0  0  0  0  0  0  0  0  0  0
    4.7821   -0.3884    1.2516 O   0  0  0  0  0  0  0  0  0  0  0  0
    5.7521    0.6355    0.9792 C   0  0  0  0  0  0  0  0  0  0  0  0
    6.5122    0.3285   -0.3257 C   0  0  0  0  0  0  0  0  0  0  0  0
    5.5417    0.1226   -1.4938 C   0  0  0  0  0  0  0  0  0  0  0  0
    6.2992   -0.2755   -2.6567 O   0  0  0  0  0  0  0  0  0  0  0  0
    7.4809    1.3271   -0.6551 O   0  0  0  0  0  0  0  0  0  0  0  0
    5.1571    2.0605    1.0511 C   0  0  0  0  0  0  0  0  0  0  0  0
    6.1736    3.0556    1.1700 O   0  0  0  0  0  0  0  0  0  0  0  0
    6.6290    3.2553    2.5091 C   0  0  0  0  0  0  0  0  0  0  0  0
    6.0338    4.4375    3.0472 O   0  0  0  0  0  0  0  0  0  0  0  0
    6.8233    5.6089    2.8437 C   0  0  0  0  0  0  0  0  0  0  0  0
    8.1440    5.5258    3.6267 C   0  0  0  0  0  0  0  0  0  0  0  0
    8.7046    4.0913    3.6550 C   0  0  0  0  0  0  0  0  0  0  0  0
    8.1737    3.2780    2.4812 C   0  0  0  0  0  0  0  0  0  0  0  0
    8.6680    3.8755    1.2575 O   0  0  0  0  0  0  0  0  0  0  0  0
   10.1411    4.1274    3.5824 O   0  0  0  0  0  0  0  0  0  0  0  0
    7.9260    5.9428    4.9865 O   0  0  0  0  0  0  0  0  0  0  0  0
    2.9776    0.4980    0.0557 O   0  0  0  0  0  0  0  0  0  0  0  0
    1.5873    0.2084    0.2543 C   0  0  0  0  0  0  0  0  0  0  0  0
    1.3059   -0.0716    1.7353 C   0  0  0  0  0  0  0  0  0  0  0  0
   -0.1752   -0.3620    1.9820 C   0  0  0  0  0  0  0  0  0  0  0  0
   -1.1314    0.7755    1.5115 C   0  0  0  0  0  0  0  0  0  0  0  0
   -0.7964    1.0892    0.0065 C   0  0  0  0  0  0  0  0  0  0  0  0
    0.7221    1.3816   -0.3132 C   0  0  0  0  0  0  0  0  0  0  0  0
    0.9388    1.3993   -1.8539 C   0  0  0  0  0  0  0  0  0  0  0  0
    1.2188    2.7510    0.1971 C   0  0  0  0  0  0  0  0  0  0  0  0
   -1.8033    2.0891   -0.5956 C   0  0  0  0  0  0  0  0  0  0  0  0
   -3.2704    1.6423   -0.4424 C   0  0  0  0  0  0  0  0  0  0  0  0
   -3.7252    1.3295    1.0154 C   0  0  0  0  0  0  0  0  0  0  0  0
   -2.6699    0.3214    1.6271 C   0  0  0  0  0  0  0  0  0  0  0  0
   -2.8532   -1.1005    1.0305 C   0  0  0  0  0  0  0  0  0  0  0  0
   -4.2311   -1.5449    0.6954 C   0  0  0  0  0  0  0  0  0  0  0  0
   -5.3351   -0.7860    0.7056 C   0  0  0  0  0  0  0  0  0  0  0  0
   -5.2439    0.7016    1.0932 C   0  0  0  0  0  0  0  0  0  0  0  0
   -5.7728    0.7784    2.5579 C   0  0  0  0  0  0  0  0  0  0  0  0
   -6.2021    1.5271    0.1791 C   0  0  0  0  0  0  0  0  0  0  0  0
   -7.6149    0.9625    0.0465 C   0  0  0  0  0  0  0  0  0  0  0  0
   -7.6217   -0.4752   -0.4563 C   0  0  0  0  0  0  0  0  0  0  0  0
   -6.7335   -1.3930    0.4232 C   0  0  0  0  0  0  0  0  0  0  0  0
   -6.7162   -2.8510   -0.1330 C   0  0  0  0  0  0  0  0  0  0  0  0
   -8.0766   -3.3613   -0.6848 C   0  0  0  0  0  0  0  0  0  0  0  0
   -7.8012   -4.5106   -1.6780 C   0  0  0  0  0  0  0  0  0  0  0  0
   -8.9351   -3.9364    0.4607 C   0  0  0  0  0  0  0  0  0  0  0  0
   -8.8212   -2.2182   -1.4170 C   0  0  0  0  0  0  0  0  0  0  0  0
   -9.0472   -1.0170   -0.5337 C   0  0  0  0  0  0  0  0  0  0  0  0
   -7.9854   -1.6757   -2.4530 O   0  0  0  0  0  0  0  0  0  0  0  0
   -7.2289   -0.6555   -1.9175 C   0  0  0  0  0  0  0  0  0  0  0  0
   -6.3460   -0.0831   -2.5324 O   0  0  0  0  0  0  0  0  0  0  0  0
   -8.3973    1.7965   -0.8061 O   0  0  0  0  0  0  0  0  0  0  0  0
   -3.7481    2.6828    1.7872 C   0  0  0  0  0  0  0  0  0  0  0  0
   -0.8845    1.9658    2.4770 C   0  0  0  0  0  0  0  0  0  0  0  0
    2.7201   -2.2522   -4.0850 C   0  0  0  0  0  0  0  0  0  0  0  0
    2.6137   -3.5866   -4.8357 C   0  0  0  0  0  0  0  0  0  0  0  0
    2.9097   -4.7876   -3.9206 C   0  0  0  0  0  0  0  0  0  0  0  0
    2.2903   -5.9487   -4.4787 O   0  0  0  0  0  0  0  0  0  0  0  0
    1.2796   -3.7185   -5.3592 O   0  0  0  0  0  0  0  0  0  0  0  0
    3.2382   -1.2386   -4.9623 O   0  0  0  0  0  0  0  0  0  0  0  0
    2.5305   -4.4694   -0.0410 H   0  0  0  0  0  0  0  0  0  0  0  0
    3.5141   -6.0280   -1.4708 H   0  0  0  0  0  0  0  0  0  0  0  0
    1.8510   -6.4799   -1.9103 H   0  0  0  0  0  0  0  0  0  0  0  0
    1.3687   -4.1183   -2.5274 H   0  0  0  0  0  0  0  0  0  0  0  0
    4.6444   -2.5748   -3.1462 H   0  0  0  0  0  0  0  0  0  0  0  0
    5.0984   -1.9141   -0.9964 H   0  0  0  0  0  0  0  0  0  0  0  0
    3.2647   -1.5162    0.4966 H   0  0  0  0  0  0  0  0  0  0  0  0
    6.4900    0.5627    1.7870 H   0  0  0  0  0  0  0  0  0  0  0  0
    7.0766   -0.6039   -0.1806 H   0  0  0  0  0  0  0  0  0  0  0  0
    5.0234    1.0501   -1.7666 H   0  0  0  0  0  0  0  0  0  0  0  0
    6.4104    0.5262   -3.2017 H   0  0  0  0  0  0  0  0  0  0  0  0
    7.9403    0.9925   -1.4480 H   0  0  0  0  0  0  0  0  0  0  0  0
    4.4295    2.1544    1.8664 H   0  0  0  0  0  0  0  0  0  0  0  0
    4.6193    2.2966    0.1293 H   0  0  0  0  0  0  0  0  0  0  0  0
    6.3056    2.4417    3.1672 H   0  0  0  0  0  0  0  0  0  0  0  0
    6.2282    6.4622    3.1944 H   0  0  0  0  0  0  0  0  0  0  0  0
    6.9948    5.7462    1.7708 H   0  0  0  0  0  0  0  0  0  0  0  0
    8.8685    6.2326    3.2107 H   0  0  0  0  0  0  0  0  0  0  0  0
    8.4469    3.5979    4.5986 H   0  0  0  0  0  0  0  0  0  0  0  0
    8.5723    2.2572    2.4813 H   0  0  0  0  0  0  0  0  0  0  0  0
    8.0784    3.5103    0.5570 H   0  0  0  0  0  0  0  0  0  0  0  0
   10.3455    4.3224    2.6453 H   0  0  0  0  0  0  0  0  0  0  0  0
    7.6012    6.8574    4.9650 H   0  0  0  0  0  0  0  0  0  0  0  0
    1.3411   -0.6960   -0.3225 H   0  0  0  0  0  0  0  0  0  0  0  0
    1.8795   -0.9447    2.0721 H   0  0  0  0  0  0  0  0  0  0  0  0
    1.6789    0.7478    2.3554 H   0  0  0  0  0  0  0  0  0  0  0  0
   -0.3348   -0.5726    3.0464 H   0  0  0  0  0  0  0  0  0  0  0  0
   -0.3888   -1.2928    1.4485 H   0  0  0  0  0  0  0  0  0  0  0  0
   -0.9863    0.1612   -0.5482 H   0  0  0  0  0  0  0  0  0  0  0  0
    0.4074    2.2267   -2.3356 H   0  0  0  0  0  0  0  0  0  0  0  0
    1.9968    1.5189   -2.1086 H   0  0  0  0  0  0  0  0  0  0  0  0
    0.5971    0.4654   -2.3135 H   0  0  0  0  0  0  0  0  0  0  0  0
    0.5702    3.5652   -0.1441 H   0  0  0  0  0  0  0  0  0  0  0  0
    1.2844    2.8019    1.2839 H   0  0  0  0  0  0  0  0  0  0  0  0
    2.2235    2.9718   -0.1831 H   0  0  0  0  0  0  0  0  0  0  0  0
   -1.6665    3.0861   -0.1705 H   0  0  0  0  0  0  0  0  0  0  0  0
   -1.6268    2.2034   -1.6693 H   0  0  0  0  0  0  0  0  0  0  0  0
   -3.8794    2.4515   -0.8622 H   0  0  0  0  0  0  0  0  0  0  0  0
   -3.4346    0.7678   -1.0825 H   0  0  0  0  0  0  0  0  0  0  0  0
   -2.8911    0.2250    2.7001 H   0  0  0  0  0  0  0  0  0  0  0  0
   -2.4590   -1.8267    1.7528 H   0  0  0  0  0  0  0  0  0  0  0  0
   -2.2737   -1.2287    0.1144 H   0  0  0  0  0  0  0  0  0  0  0  0
   -4.2772   -2.6008    0.4449 H   0  0  0  0  0  0  0  0  0  0  0  0
   -6.7169    0.2433    2.6996 H   0  0  0  0  0  0  0  0  0  0  0  0
   -5.0630    0.3450    3.2683 H   0  0  0  0  0  0  0  0  0  0  0  0
   -5.9710    1.8107    2.8658 H   0  0  0  0  0  0  0  0  0  0  0  0
   -5.7977    1.6270   -0.8321 H   0  0  0  0  0  0  0  0  0  0  0  0
   -6.2927    2.5571    0.5443 H   0  0  0  0  0  0  0  0  0  0  0  0
   -8.1047    0.9995    1.0260 H   0  0  0  0  0  0  0  0  0  0  0  0
   -7.2242   -1.4606    1.4037 H   0  0  0  0  0  0  0  0  0  0  0  0
   -5.9815   -2.9098   -0.9475 H   0  0  0  0  0  0  0  0  0  0  0  0
   -6.3570   -3.5359    0.6450 H   0  0  0  0  0  0  0  0  0  0  0  0
   -7.2791   -5.3390   -1.1871 H   0  0  0  0  0  0  0  0  0  0  0  0
   -8.7342   -4.9072   -2.0961 H   0  0  0  0  0  0  0  0  0  0  0  0
   -7.1767   -4.1784   -2.5173 H   0  0  0  0  0  0  0  0  0  0  0  0
   -9.0932   -3.2149    1.2685 H   0  0  0  0  0  0  0  0  0  0  0  0
   -8.4535   -4.8162    0.9049 H   0  0  0  0  0  0  0  0  0  0  0  0
   -9.9193   -4.2502    0.0913 H   0  0  0  0  0  0  0  0  0  0  0  0
   -9.7607   -2.5675   -1.8612 H   0  0  0  0  0  0  0  0  0  0  0  0
   -9.4892   -1.2378    0.4411 H   0  0  0  0  0  0  0  0  0  0  0  0
   -9.7154   -0.3137   -1.0477 H   0  0  0  0  0  0  0  0  0  0  0  0
   -8.2761    2.7199   -0.5225 H   0  0  0  0  0  0  0  0  0  0  0  0
   -3.7728    2.5279    2.8697 H   0  0  0  0  0  0  0  0  0  0  0  0
   -4.6158    3.2913    1.5289 H   0  0  0  0  0  0  0  0  0  0  0  0
   -2.9009    3.3279    1.5697 H   0  0  0  0  0  0  0  0  0  0  0  0
    0.1013    1.9521    2.9397 H   0  0  0  0  0  0  0  0  0  0  0  0
   -0.9671    2.9368    1.9928 H   0  0  0  0  0  0  0  0  0  0  0  0
   -1.5763    1.9445    3.3254 H   0  0  0  0  0  0  0  0  0  0  0  0
    1.7204   -1.9090   -3.7881 H   0  0  0  0  0  0  0  0  0  0  0  0
    3.2801   -3.6133   -5.7042 H   0  0  0  0  0  0  0  0  0  0  0  0
    3.9969   -4.9458   -3.8974 H   0  0  0  0  0  0  0  0  0  0  0  0
    2.8267   -6.7269   -4.2415 H   0  0  0  0  0  0  0  0  0  0  0  0
    1.1580   -4.6798   -5.5138 H   0  0  0  0  0  0  0  0  0  0  0  0
    3.4156   -0.4651   -4.3912 H   0  0  0  0  0  0  0  0  0  0  0  0
  1  2  1  0
  2  3  1  0
  3  4  1  0
  4  5  1  0
  5  6  1  0
  6  7  1  0
  7  8  1  0
  8  9  1  0
  9 10  1  0
 10 11  1  0
 11 12  1  0
 12 13  1  0
 11 14  1  0
 10 15  1  0
 15 16  1  0
 16 17  1  0
 17 18  1  0
 18 19  1  0
 19 20  1  0
 20 21  1  0
 21 22  1  0
 22 23  1  0
 21 24  1  0
 20 25  1  0
  8 26  1  0
 26 27  1  0
 27 28  1  0
 28 29  1  0
 29 30  1  0
 30 31  1  0
 31 32  1  0
 32 33  1  0
 32 34  1  0
 31 35  1  0
 35 36  1  0
 36 37  1  0
 37 38  1  0
 38 39  1  0
 39 40  1  0
 40 41  2  0
 41 42  1  0
 42 43  1  0
 42 44  1  0
 44 45  1  0
 45 46  1  0
 46 47  1  0
 47 48  1  0
 48 49  1  0
 49 50  1  0
 49 51  1  0
 49 52  1  0
 52 53  1  0
 52 54  1  0
 54 55  1  0
 55 56  2  0
 45 57  1  0
 37 58  1  0
 30 59  1  0
  5 60  1  0
 60 61  1  0
 61 62  1  0
 62 63  1  0
 61 64  1  0
 60 65  1  0
 62  3  1  0
 12  7  1  0
 22 17  1  0
 32 27  1  0
 42 37  1  0
 53 46  1  0
 38 30  1  0
 47 41  1  0
 55 46  1  0
  1 66  1  0
  2 67  1  0
  2 68  1  0
  3 69  1  0
  5 70  1  0
  7 71  1  0
  8 72  1  0
 10 73  1  0
 11 74  1  0
 12 75  1  0
 13 76  1  0
 14 77  1  0
 15 78  1  0
 15 79  1  0
 17 80  1  0
 19 81  1  0
 19 82  1  0
 20 83  1  0
 21 84  1  0
 22 85  1  0
 23 86  1  0
 24 87  1  0
 25 88  1  0
 27 89  1  0
 28 90  1  0
 28 91  1  0
 29 92  1  0
 29 93  1  0
 31 94  1  0
 33 95  1  0
 33 96  1  0
 33 97  1  0
 34 98  1  0
 34 99  1  0
 34100  1  0
 35101  1  0
 35102  1  0
 36103  1  0
 36104  1  0
 38105  1  0
 39106  1  0
 39107  1  0
 40108  1  0
 43109  1  0
 43110  1  0
 43111  1  0
 44112  1  0
 44113  1  0
 45114  1  0
 47115  1  0
 48116  1  0
 48117  1  0
 50118  1  0
 50119  1  0
 50120  1  0
 51121  1  0
 51122  1  0
 51123  1  0
 52124  1  0
 53125  1  0
 53126  1  0
 57127  1  0
 58128  1  0
 58129  1  0
 58130  1  0
 59131  1  0
 59132  1  0
 59133  1  0
 60134  1  0
 61135  1  0
 62136  1  0
 63137  1  0
 64138  1  0
 65139  1  0
M  END
