
     RDKit          3D

124129  0  0  0  0  0  0  0  0999 V2000
   -2.2986    1.2972    1.2384 C   0  0  0  0  0  0  0  0  0  0  0  0
   -1.3970    0.6861    0.1435 C   0  0  0  0  0  0  0  0  0  0  0  0
    0.0993    0.4594    0.6012 C   0  0  0  0  0  0  0  0  0  0  0  0
    0.7946    1.7367    1.0982 C   0  0  0  0  0  0  0  0  0  0  0  0
    2.2997    1.5504    1.2793 C   0  0  0  0  0  0  0  0  0  0  0  0
    2.7362    0.3806    2.2148 C   0  0  0  0  0  0  0  0  0  0  0  0
    1.9302   -0.9247    1.8047 C   0  0  0  0  0  0  0  0  0  0  0  0
    0.3429   -0.7319    1.5868 C   0  0  0  0  0  0  0  0  0  0  0  0
   -0.3402   -1.9917    0.9723 C   0  0  0  0  0  0  0  0  0  0  0  0
   -1.8131   -1.8125    0.6008 C   0  0  0  0  0  0  0  0  0  0  0  0
   -1.9958   -0.6595   -0.3879 C   0  0  0  0  0  0  0  0  0  0  0  0
   -3.3830   -0.4542   -0.6995 O   0  0  0  0  0  0  0  0  0  0  0  0
   -3.9375   -1.4142   -1.6106 C   0  0  0  0  0  0  0  0  0  0  0  0
   -5.1355   -0.7609   -2.3446 C   0  0  0  0  0  0  0  0  0  0  0  0
   -5.7014   -1.7362   -3.3925 C   0  0  0  0  0  0  0  0  0  0  0  0
   -5.2850   -3.1926   -3.1274 C   0  0  0  0  0  0  0  0  0  0  0  0
   -5.1841   -3.4881   -1.6237 C   0  0  0  0  0  0  0  0  0  0  0  0
   -4.3521   -2.5731   -0.8941 O   0  0  0  0  0  0  0  0  0  0  0  0
   -6.5779   -3.5575   -0.9928 C   0  0  0  0  0  0  0  0  0  0  0  0
   -6.9877   -2.9340   -0.0247 O   0  0  0  0  0  0  0  0  0  0  0  0
   -7.3962   -4.4383   -1.6080 O   0  0  0  0  0  0  0  0  0  0  0  0
   -4.0105   -3.4351   -3.7564 O   0  0  0  0  0  0  0  0  0  0  0  0
   -5.2651   -1.3824   -4.7169 O   0  0  0  0  0  0  0  0  0  0  0  0
   -6.2219   -0.5140   -1.4358 O   0  0  0  0  0  0  0  0  0  0  0  0
   -6.1006    0.6737   -0.6583 C   0  0  0  0  0  0  0  0  0  0  0  0
   -6.3471    0.3072    0.8223 C   0  0  0  0  0  0  0  0  0  0  0  0
   -6.4416    1.5881    1.6590 C   0  0  0  0  0  0  0  0  0  0  0  0
   -7.4902    2.5465    1.0668 C   0  0  0  0  0  0  0  0  0  0  0  0
   -7.1241    2.8120   -0.3988 C   0  0  0  0  0  0  0  0  0  0  0  0
   -7.0852    1.5919   -1.1434 O   0  0  0  0  0  0  0  0  0  0  0  0
   -8.0764    3.8584   -0.9706 C   0  0  0  0  0  0  0  0  0  0  0  0
   -8.1971    5.0050   -0.5613 O   0  0  0  0  0  0  0  0  0  0  0  0
   -8.7881    3.4497   -2.0399 O   0  0  0  0  0  0  0  0  0  0  0  0
   -8.8012    1.9620    1.1709 O   0  0  0  0  0  0  0  0  0  0  0  0
   -6.7817    1.2652    3.0103 O   0  0  0  0  0  0  0  0  0  0  0  0
   -7.5968   -0.4120    0.9611 O   0  0  0  0  0  0  0  0  0  0  0  0
   -0.3177   -0.5367    2.9821 C   0  0  0  0  0  0  0  0  0  0  0  0
    2.6165   -1.6488    0.6332 C   0  0  0  0  0  0  0  0  0  0  0  0
    2.2415   -2.7450    0.2113 O   0  0  0  0  0  0  0  0  0  0  0  0
    3.8583   -1.1304    0.0255 C   0  0  0  0  0  0  0  0  0  0  0  0
    4.7323   -0.3809    0.7180 C   0  0  0  0  0  0  0  0  0  0  0  0
    4.3503    0.1376    2.1166 C   0  0  0  0  0  0  0  0  0  0  0  0
    5.1228    1.4549    2.4723 C   0  0  0  0  0  0  0  0  0  0  0  0
    6.5737    1.5234    2.0089 C   0  0  0  0  0  0  0  0  0  0  0  0
    6.7296    1.2359    0.5021 C   0  0  0  0  0  0  0  0  0  0  0  0
    6.1862   -0.1914    0.2370 C   0  0  0  0  0  0  0  0  0  0  0  0
    6.4899   -0.6396   -1.2176 C   0  0  0  0  0  0  0  0  0  0  0  0
    7.9865   -0.5569   -1.5962 C   0  0  0  0  0  0  0  0  0  0  0  0
    8.5811    0.8211   -1.2445 C   0  0  0  0  0  0  0  0  0  0  0  0
    8.2404    1.2932    0.1689 C   0  0  0  0  0  0  0  0  0  0  0  0
    8.1479   -0.7747   -3.1139 C   0  0  0  0  0  0  0  0  0  0  0  0
    8.7630   -1.6691   -0.8847 C   0  0  0  0  0  0  0  0  0  0  0  0
    9.6356   -1.5338   -0.0441 O   0  0  0  0  0  0  0  0  0  0  0  0
    8.3854   -2.9085   -1.2576 O   0  0  0  0  0  0  0  0  0  0  0  0
    5.9899    2.3113   -0.3276 C   0  0  0  0  0  0  0  0  0  0  0  0
    4.8131   -0.9494    3.1294 C   0  0  0  0  0  0  0  0  0  0  0  0
    2.4001    0.7891    3.6777 C   0  0  0  0  0  0  0  0  0  0  0  0
   -1.4267    1.6942   -1.0420 C   0  0  0  0  0  0  0  0  0  0  0  0
   -0.0149    0.0165    0.2944 N   0  0  0  0  0  0  0  0  0  0  0  0
   -1.8439    2.1803    1.6970 H   0  0  0  0  0  0  0  0  0  0  0  0
   -2.5433    0.5904    2.0324 H   0  0  0  0  0  0  0  0  0  0  0  0
   -3.2540    1.6302    0.8172 H   0  0  0  0  0  0  0  0  0  0  0  0
    0.6301    0.1812   -0.3240 H   0  0  0  0  0  0  0  0  0  0  0  0
    0.3521    2.1020    2.0276 H   0  0  0  0  0  0  0  0  0  0  0  0
    0.6655    2.5468    0.3727 H   0  0  0  0  0  0  0  0  0  0  0  0
    2.6779    2.5058    1.6573 H   0  0  0  0  0  0  0  0  0  0  0  0
    2.7355    1.4230    0.2817 H   0  0  0  0  0  0  0  0  0  0  0  0
    2.0475   -1.6437    2.6290 H   0  0  0  0  0  0  0  0  0  0  0  0
    0.1355   -2.2606    0.0264 H   0  0  0  0  0  0  0  0  0  0  0  0
   -0.2307   -2.8494    1.6465 H   0  0  0  0  0  0  0  0  0  0  0  0
   -2.1503   -2.7490    0.1422 H   0  0  0  0  0  0  0  0  0  0  0  0
   -2.4590   -1.6837    1.4742 H   0  0  0  0  0  0  0  0  0  0  0  0
   -1.4617   -0.9108   -1.3152 H   0  0  0  0  0  0  0  0  0  0  0  0
   -3.1656   -1.6808   -2.3411 H   0  0  0  0  0  0  0  0  0  0  0  0
   -4.8389    0.1840   -2.8161 H   0  0  0  0  0  0  0  0  0  0  0  0
   -6.7978   -1.6849   -3.3951 H   0  0  0  0  0  0  0  0  0  0  0  0
   -5.9872   -3.8682   -3.6282 H   0  0  0  0  0  0  0  0  0  0  0  0
   -4.7264   -4.4735   -1.4740 H   0  0  0  0  0  0  0  0  0  0  0  0
   -8.2216   -4.4096   -1.0776 H   0  0  0  0  0  0  0  0  0  0  0  0
   -4.0656   -2.9740   -4.6213 H   0  0  0  0  0  0  0  0  0  0  0  0
   -5.7165   -0.5474   -4.9474 H   0  0  0  0  0  0  0  0  0  0  0  0
   -5.1215    1.1488   -0.7774 H   0  0  0  0  0  0  0  0  0  0  0  0
   -5.5660   -0.3567    1.2080 H   0  0  0  0  0  0  0  0  0  0  0  0
   -5.4666    2.0869    1.6801 H   0  0  0  0  0  0  0  0  0  0  0  0
   -7.5212    3.4736    1.6490 H   0  0  0  0  0  0  0  0  0  0  0  0
   -6.1268    3.2675   -0.4679 H   0  0  0  0  0  0  0  0  0  0  0  0
   -9.3667    4.2105   -2.2491 H   0  0  0  0  0  0  0  0  0  0  0  0
   -8.7301    1.0332    0.8544 H   0  0  0  0  0  0  0  0  0  0  0  0
   -7.6349    0.7880    2.9497 H   0  0  0  0  0  0  0  0  0  0  0  0
   -7.4328   -1.2793    0.5200 H   0  0  0  0  0  0  0  0  0  0  0  0
   -0.3992    0.5089    3.2781 H   0  0  0  0  0  0  0  0  0  0  0  0
    0.2344   -1.0718    3.7620 H   0  0  0  0  0  0  0  0  0  0  0  0
   -1.3324   -0.9350    3.0418 H   0  0  0  0  0  0  0  0  0  0  0  0
    4.0824   -1.5820   -0.9329 H   0  0  0  0  0  0  0  0  0  0  0  0
    5.1284    1.6043    3.5588 H   0  0  0  0  0  0  0  0  0  0  0  0
    4.6227    2.3352    2.0656 H   0  0  0  0  0  0  0  0  0  0  0  0
    6.9741    2.5182    2.2451 H   0  0  0  0  0  0  0  0  0  0  0  0
    7.1707    0.8122    2.5946 H   0  0  0  0  0  0  0  0  0  0  0  0
    6.7684   -0.8750    0.8748 H   0  0  0  0  0  0  0  0  0  0  0  0
    5.8976   -0.0352   -1.9172 H   0  0  0  0  0  0  0  0  0  0  0  0
    6.1602   -1.6768   -1.3568 H   0  0  0  0  0  0  0  0  0  0  0  0
    8.2271    1.5723   -1.9613 H   0  0  0  0  0  0  0  0  0  0  0  0
    9.6739    0.8027   -1.3530 H   0  0  0  0  0  0  0  0  0  0  0  0
    8.7979    0.6836    0.8910 H   0  0  0  0  0  0  0  0  0  0  0  0
    8.6139    2.3178    0.2978 H   0  0  0  0  0  0  0  0  0  0  0  0
    7.6603    0.0240   -3.6839 H   0  0  0  0  0  0  0  0  0  0  0  0
    7.7041   -1.7234   -3.4376 H   0  0  0  0  0  0  0  0  0  0  0  0
    9.2064   -0.7945   -3.3996 H   0  0  0  0  0  0  0  0  0  0  0  0
    8.9573   -3.5045   -0.7291 H   0  0  0  0  0  0  0  0  0  0  0  0
    4.9086    2.2869   -0.1757 H   0  0  0  0  0  0  0  0  0  0  0  0
    6.3364    3.3147   -0.0547 H   0  0  0  0  0  0  0  0  0  0  0  0
    6.1540    2.1950   -1.4027 H   0  0  0  0  0  0  0  0  0  0  0  0
    4.2962   -1.9030    2.9816 H   0  0  0  0  0  0  0  0  0  0  0  0
    5.8859   -1.1560    3.0402 H   0  0  0  0  0  0  0  0  0  0  0  0
    4.6433   -0.6376    4.1649 H   0  0  0  0  0  0  0  0  0  0  0  0
    2.4486   -0.0670    4.3573 H   0  0  0  0  0  0  0  0  0  0  0  0
    3.0791    1.5547    4.0611 H   0  0  0  0  0  0  0  0  0  0  0  0
    1.4132    1.2366    3.7818 H   0  0  0  0  0  0  0  0  0  0  0  0
   -2.4247    1.7618   -1.4906 H   0  0  0  0  0  0  0  0  0  0  0  0
   -1.1606    2.7072   -0.7262 H   0  0  0  0  0  0  0  0  0  0  0  0
   -0.7331    1.3923   -1.8351 H   0  0  0  0  0  0  0  0  0  0  0  0
   -0.7356   -0.5839   -0.1032 H   0  0  0  0  0  0  0  0  0  0  0  0
   -0.1240    0.9235   -0.1569 H   0  0  0  0  0  0  0  0  0  0  0  0
    0.8746   -0.3562   -0.0343 H   0  0  0  0  0  0  0  0  0  0  0  0
  1  2  1  0
  2  3  1  0
  3  4  1  0
  4  5  1  0
  5  6  1  0
  6  7  1  0
  7  8  1  0
  8  9  1  0
  9 10  1  0
 10 11  1  0
 11 12  1  0
 12 13  1  0
 13 14  1  0
 14 15  1  0
 15 16  1  0
 16 17  1  0
 17 18  1  0
 17 19  1  0
 19 20  2  0
 19 21  1  0
 16 22  1  0
 15 23  1  0
 14 24  1  0
 24 25  1  0
 25 26  1  0
 26 27  1  0
 27 28  1  0
 28 29  1  0
 29 30  1  0
 29 31  1  0
 31 32  2  0
 31 33  1  0
 28 34  1  0
 27 35  1  0
 26 36  1  0
  8 37  1  0
  7 38  1  0
 38 39  2  0
 38 40  1  0
 40 41  2  0
 41 42  1  0
 42 43  1  0
 43 44  1  0
 44 45  1  0
 45 46  1  0
 46 47  1  0
 47 48  1  0
 48 49  1  0
 49 50  1  0
 48 51  1  0
 48 52  1  0
 52 53  2  0
 52 54  1  0
 45 55  1  0
 42 56  1  0
  6 57  1  0
  2 58  1  0
 11  2  1  0
  8  3  1  0
 42  6  1  0
 18 13  1  0
 30 25  1  0
 46 41  1  0
 50 45  1  0
  1 60  1  0
  1 61  1  0
  1 62  1  0
  3 63  1  0
  4 64  1  0
  4 65  1  0
  5 66  1  0
  5 67  1  0
  7 68  1  0
  9 69  1  0
  9 70  1  0
 10 71  1  0
 10 72  1  0
 11 73  1  0
 13 74  1  0
 14 75  1  0
 15 76  1  0
 16 77  1  0
 17 78  1  0
 21 79  1  0
 22 80  1  0
 23 81  1  0
 25 82  1  0
 26 83  1  0
 27 84  1  0
 28 85  1  0
 29 86  1  0
 33 87  1  0
 34 88  1  0
 35 89  1  0
 36 90  1  0
 37 91  1  0
 37 92  1  0
 37 93  1  0
 40 94  1  0
 43 95  1  0
 43 96  1  0
 44 97  1  0
 44 98  1  0
 46 99  1  0
 47100  1  0
 47101  1  0
 49102  1  0
 49103  1  0
 50104  1  0
 50105  1  0
 51106  1  0
 51107  1  0
 51108  1  0
 54109  1  0
 55110  1  0
 55111  1  0
 55112  1  0
 56113  1  0
 56114  1  0
 56115  1  0
 57116  1  0
 57117  1  0
 57118  1  0
 58119  1  0
 58120  1  0
 58121  1  0
 59122  1  0
 59123  1  0
 59124  1  0
M  END
