
     RDKit          3D

 33 33  0  0  0  0  0  0  0  0999 V2000
    3.8079   -0.7880    1.5875 N   0  0  0  0  0  0  0  0  0  0  0  0
    2.5777   -0.0028    1.3105 C   0  0  0  0  0  0  0  0  0  0  0  0
    1.3517   -0.8311    1.7694 C   0  0  0  0  0  0  0  0  0  0  0  0
    1.4049   -2.0500    1.9281 O   0  0  0  0  0  0  0  0  0  0  0  0
    0.2080   -0.0980    1.9791 N   0  0  0  0  0  0  0  0  0  0  0  0
   -1.0616   -0.7210    2.2995 C   0  0  0  0  0  0  0  0  0  0  0  0
   -1.7069   -1.4438    1.1093 C   0  0  0  0  0  0  0  0  0  0  0  0
   -1.9135   -0.5628   -0.1033 C   0  0  0  0  0  0  0  0  0  0  0  0
   -1.2366   -0.8462   -1.3003 C   0  0  0  0  0  0  0  0  0  0  0  0
   -1.4083   -0.0305   -2.4190 C   0  0  0  0  0  0  0  0  0  0  0  0
   -2.2565    1.0667   -2.3425 C   0  0  0  0  0  0  0  0  0  0  0  0
   -2.9448    1.3583   -1.1713 C   0  0  0  0  0  0  0  0  0  0  0  0
   -2.7775    0.5419   -0.0519 C   0  0  0  0  0  0  0  0  0  0  0  0
   -2.4063    1.8605   -3.4109 F   0  0  0  0  0  0  0  0  0  0  0  0
    2.4913    0.2975   -0.1866 C   0  0  0  0  0  0  0  0  0  0  0  0
    1.5402    1.4267   -0.4663 C   0  0  0  0  0  0  0  0  0  0  0  0
    0.8612    2.0330    0.3473 O   0  0  0  0  0  0  0  0  0  0  0  0
    1.4781    1.7235   -1.7782 O   0  0  0  0  0  0  0  0  0  0  0  0
    3.8318   -0.9823    2.5915 H   0  0  0  0  0  0  0  0  0  0  0  0
    3.6727   -1.7184    1.1776 H   0  0  0  0  0  0  0  0  0  0  0  0
    2.6279    0.9160    1.9058 H   0  0  0  0  0  0  0  0  0  0  0  0
    0.1871    0.8680    1.6492 H   0  0  0  0  0  0  0  0  0  0  0  0
   -1.7162    0.0707    2.6794 H   0  0  0  0  0  0  0  0  0  0  0  0
   -0.8981   -1.4378    3.1123 H   0  0  0  0  0  0  0  0  0  0  0  0
   -1.0929   -2.3100    0.8337 H   0  0  0  0  0  0  0  0  0  0  0  0
   -2.6797   -1.8489    1.4144 H   0  0  0  0  0  0  0  0  0  0  0  0
   -0.5679   -1.7025   -1.3655 H   0  0  0  0  0  0  0  0  0  0  0  0
   -0.8826   -0.2426   -3.3446 H   0  0  0  0  0  0  0  0  0  0  0  0
   -3.6070    2.2175   -1.1363 H   0  0  0  0  0  0  0  0  0  0  0  0
   -3.3238    0.7750    0.8594 H   0  0  0  0  0  0  0  0  0  0  0  0
    2.1583   -0.5848   -0.7452 H   0  0  0  0  0  0  0  0  0  0  0  0
    3.4729    0.6093   -0.5637 H   0  0  0  0  0  0  0  0  0  0  0  0
    0.8085    2.4367   -1.8491 H   0  0  0  0  0  0  0  0  0  0  0  0
  1  2  1  0
  2  3  1  0
  3  4  2  0
  3  5  1  0
  5  6  1  0
  6  7  1  0
  7  8  1  0
  8  9  2  0
  9 10  1  0
 10 11  2  0
 11 12  1  0
 12 13  2  0
 11 14  1  0
  2 15  1  0
 15 16  1  0
 16 17  2  0
 16 18  1  0
 13  8  1  0
  1 19  1  0
  1 20  1  0
  2 21  1  0
  5 22  1  0
  6 23  1  0
  6 24  1  0
  7 25  1  0
  7 26  1  0
  9 27  1  0
 10 28  1  0
 12 29  1  0
 13 30  1  0
 15 31  1  0
 15 32  1  0
 18 33  1  0
M  END
