
     RDKit          3D

 39 39  0  0  0  0  0  0  0  0999 V2000
    4.3752   -0.5570    2.5785 N   0  0  0  0  0  0  0  0  0  0  0  0
    3.3608   -0.3300    1.5161 C   0  0  0  0  0  0  0  0  0  0  0  0
    2.0620   -1.0840    1.9063 C   0  0  0  0  0  0  0  0  0  0  0  0
    2.0056   -1.8272    2.8853 O   0  0  0  0  0  0  0  0  0  0  0  0
    0.9864   -0.8511    1.0782 N   0  0  0  0  0  0  0  0  0  0  0  0
   -0.3293   -1.3645    1.3963 C   0  0  0  0  0  0  0  0  0  0  0  0
   -1.2581   -1.4030    0.1827 C   0  0  0  0  0  0  0  0  0  0  0  0
   -1.5928   -0.0349   -0.4483 C   0  0  0  0  0  0  0  0  0  0  0  0
   -2.2696    0.9230    0.5453 C   0  0  0  0  0  0  0  0  0  0  0  0
   -2.6758    2.2396   -0.1150 C   0  0  0  0  0  0  0  0  0  0  0  0
   -3.5518    2.0133   -1.3415 C   0  0  0  0  0  0  0  0  0  0  0  0
   -2.8804    1.0759   -2.3382 C   0  0  0  0  0  0  0  0  0  0  0  0
   -2.4856   -0.2456   -1.6849 C   0  0  0  0  0  0  0  0  0  0  0  0
    3.9095   -0.8299    0.1789 C   0  0  0  0  0  0  0  0  0  0  0  0
    3.2196   -0.1603   -0.9764 C   0  0  0  0  0  0  0  0  0  0  0  0
    2.2522    0.5830   -0.9249 O   0  0  0  0  0  0  0  0  0  0  0  0
    3.7768   -0.4841   -2.1586 O   0  0  0  0  0  0  0  0  0  0  0  0
    3.9637   -0.2462    3.4632 H   0  0  0  0  0  0  0  0  0  0  0  0
    4.4543   -1.5700    2.7144 H   0  0  0  0  0  0  0  0  0  0  0  0
    3.1412    0.7436    1.4927 H   0  0  0  0  0  0  0  0  0  0  0  0
    1.0522   -0.0539    0.4463 H   0  0  0  0  0  0  0  0  0  0  0  0
   -0.2165   -2.3810    1.7912 H   0  0  0  0  0  0  0  0  0  0  0  0
   -0.7422   -0.7551    2.2060 H   0  0  0  0  0  0  0  0  0  0  0  0
   -0.8010   -2.0415   -0.5848 H   0  0  0  0  0  0  0  0  0  0  0  0
   -2.1912   -1.8965    0.4836 H   0  0  0  0  0  0  0  0  0  0  0  0
   -0.6615    0.4323   -0.7924 H   0  0  0  0  0  0  0  0  0  0  0  0
   -1.5942    1.1515    1.3768 H   0  0  0  0  0  0  0  0  0  0  0  0
   -3.1584    0.4446    0.9759 H   0  0  0  0  0  0  0  0  0  0  0  0
   -1.7744    2.7922   -0.4076 H   0  0  0  0  0  0  0  0  0  0  0  0
   -3.2109    2.8641    0.6094 H   0  0  0  0  0  0  0  0  0  0  0  0
   -3.7669    2.9733   -1.8242 H   0  0  0  0  0  0  0  0  0  0  0  0
   -4.5142    1.5887   -1.0304 H   0  0  0  0  0  0  0  0  0  0  0  0
   -1.9875    1.5599   -2.7528 H   0  0  0  0  0  0  0  0  0  0  0  0
   -3.5582    0.8838   -3.1775 H   0  0  0  0  0  0  0  0  0  0  0  0
   -1.9615   -0.8665   -2.4214 H   0  0  0  0  0  0  0  0  0  0  0  0
   -3.3945   -0.7909   -1.3994 H   0  0  0  0  0  0  0  0  0  0  0  0
    3.7874   -1.9144    0.0796 H   0  0  0  0  0  0  0  0  0  0  0  0
    4.9750   -0.5820    0.0951 H   0  0  0  0  0  0  0  0  0  0  0  0
    3.2544    0.0009   -2.8312 H   0  0  0  0  0  0  0  0  0  0  0  0
  1  2  1  0
  2  3  1  0
  3  4  2  0
  3  5  1  0
  5  6  1  0
  6  7  1  0
  7  8  1  0
  8  9  1  0
  9 10  1  0
 10 11  1  0
 11 12  1  0
 12 13  1  0
  2 14  1  0
 14 15  1  0
 15 16  2  0
 15 17  1  0
 13  8  1  0
  1 18  1  0
  1 19  1  0
  2 20  1  0
  5 21  1  0
  6 22  1  0
  6 23  1  0
  7 24  1  0
  7 25  1  0
  8 26  1  0
  9 27  1  0
  9 28  1  0
 10 29  1  0
 10 30  1  0
 11 31  1  0
 11 32  1  0
 12 33  1  0
 12 34  1  0
 13 35  1  0
 13 36  1  0
 14 37  1  0
 14 38  1  0
 17 39  1  0
M  END
