
     RDKit          3D

 49 50  0  0  0  0  0  0  0  0999 V2000
    3.8525   -2.3488    0.6230 O   0  0  0  0  0  0  0  0  0  0  0  0
    3.9881   -1.3971   -0.4345 C   0  0  0  0  0  0  0  0  0  0  0  0
    3.4012   -0.0433   -0.0134 C   0  0  0  0  0  0  0  0  0  0  0  0
    2.0628   -0.2990    0.4545 O   0  0  0  0  0  0  0  0  0  0  0  0
    1.3813    0.8994    0.8063 C   0  0  0  0  0  0  0  0  0  0  0  0
    0.0488    0.6099    1.2519 O   0  0  0  0  0  0  0  0  0  0  0  0
   -0.8685    0.3027    0.1922 C   0  0  0  0  0  0  0  0  0  0  0  0
   -0.6436   -1.1046   -0.3777 C   0  0  0  0  0  0  0  0  0  0  0  0
   -1.8238   -1.6864   -1.1269 C   0  0  0  0  0  0  0  0  0  0  0  0
   -3.0503   -1.1189   -1.0770 C   0  0  0  0  0  0  0  0  0  0  0  0
   -3.3951    0.1022   -0.2284 C   0  0  0  0  0  0  0  0  0  0  0  0
   -2.2705    0.3933    0.7962 C   0  0  0  0  0  0  0  0  0  0  0  0
   -3.5806    1.3213   -1.1557 C   0  0  0  0  0  0  0  0  0  0  0  0
   -4.6956   -0.0973    0.5794 C   0  0  0  0  0  0  0  0  0  0  0  0
   -4.1402   -1.6726   -1.9346 C   0  0  0  0  0  0  0  0  0  0  0  0
   -4.0224   -1.8248   -3.1442 O   0  0  0  0  0  0  0  0  0  0  0  0
   -1.4751   -2.9292   -1.9102 C   0  0  0  0  0  0  0  0  0  0  0  0
    2.0948    1.5800    1.9910 C   0  0  0  0  0  0  0  0  0  0  0  0
    3.5497    1.8696    1.6359 C   0  0  0  0  0  0  0  0  0  0  0  0
    4.2534    0.6263    1.0812 C   0  0  0  0  0  0  0  0  0  0  0  0
    5.5245    1.0180    0.5502 O   0  0  0  0  0  0  0  0  0  0  0  0
    3.6051    2.9119    0.6385 O   0  0  0  0  0  0  0  0  0  0  0  0
    1.4451    2.8171    2.3305 O   0  0  0  0  0  0  0  0  0  0  0  0
    2.9154   -2.3035    0.8941 H   0  0  0  0  0  0  0  0  0  0  0  0
    3.4347   -1.7955   -1.2916 H   0  0  0  0  0  0  0  0  0  0  0  0
    5.0438   -1.3214   -0.7100 H   0  0  0  0  0  0  0  0  0  0  0  0
    3.3596    0.5943   -0.9062 H   0  0  0  0  0  0  0  0  0  0  0  0
    1.3259    1.5822   -0.0517 H   0  0  0  0  0  0  0  0  0  0  0  0
   -0.7675    1.0565   -0.5979 H   0  0  0  0  0  0  0  0  0  0  0  0
   -0.3641   -1.7917    0.4316 H   0  0  0  0  0  0  0  0  0  0  0  0
    0.2148   -1.0659   -1.0596 H   0  0  0  0  0  0  0  0  0  0  0  0
   -2.4091    1.3841    1.2504 H   0  0  0  0  0  0  0  0  0  0  0  0
   -2.3327   -0.3131    1.6376 H   0  0  0  0  0  0  0  0  0  0  0  0
   -3.7617    2.2338   -0.5759 H   0  0  0  0  0  0  0  0  0  0  0  0
   -4.4369    1.1877   -1.8273 H   0  0  0  0  0  0  0  0  0  0  0  0
   -2.7002    1.4960   -1.7839 H   0  0  0  0  0  0  0  0  0  0  0  0
   -5.5781   -0.1494   -0.0677 H   0  0  0  0  0  0  0  0  0  0  0  0
   -4.8595    0.7375    1.2712 H   0  0  0  0  0  0  0  0  0  0  0  0
   -4.6585   -1.0184    1.1725 H   0  0  0  0  0  0  0  0  0  0  0  0
   -5.0776   -1.9148   -1.4097 H   0  0  0  0  0  0  0  0  0  0  0  0
   -2.3485   -3.4984   -2.2382 H   0  0  0  0  0  0  0  0  0  0  0  0
   -0.8822   -2.6646   -2.7916 H   0  0  0  0  0  0  0  0  0  0  0  0
   -0.8818   -3.6092   -1.2887 H   0  0  0  0  0  0  0  0  0  0  0  0
    2.0548    0.9295    2.8733 H   0  0  0  0  0  0  0  0  0  0  0  0
    4.0940    2.2639    2.5015 H   0  0  0  0  0  0  0  0  0  0  0  0
    4.4242   -0.0761    1.9050 H   0  0  0  0  0  0  0  0  0  0  0  0
    5.3880    1.9125    0.1732 H   0  0  0  0  0  0  0  0  0  0  0  0
    3.0552    3.6348    1.0095 H   0  0  0  0  0  0  0  0  0  0  0  0
    0.5067    2.5794    2.4730 H   0  0  0  0  0  0  0  0  0  0  0  0
  1  2  1  0
  2  3  1  0
  3  4  1  0
  4  5  1  0
  5  6  1  0
  6  7  1  0
  7  8  1  0
  8  9  1  0
  9 10  2  0
 10 11  1  0
 11 12  1  0
 11 13  1  0
 11 14  1  0
 10 15  1  0
 15 16  2  0
  9 17  1  0
  5 18  1  0
 18 19  1  0
 19 20  1  0
 20 21  1  0
 19 22  1  0
 18 23  1  0
 20  3  1  0
 12  7  1  0
  1 24  1  0
  2 25  1  0
  2 26  1  0
  3 27  1  0
  5 28  1  0
  7 29  1  0
  8 30  1  0
  8 31  1  0
 12 32  1  0
 12 33  1  0
 13 34  1  0
 13 35  1  0
 13 36  1  0
 14 37  1  0
 14 38  1  0
 14 39  1  0
 15 40  1  0
 17 41  1  0
 17 42  1  0
 17 43  1  0
 18 44  1  0
 19 45  1  0
 20 46  1  0
 21 47  1  0
 22 48  1  0
 23 49  1  0
M  END
