
     RDKit          3D

 36 36  0  0  0  0  0  0  0  0999 V2000
    1.6017   -0.4283   -2.6029 C   0  0  0  0  0  0  0  0  0  0  0  0
    0.9880   -1.2538   -1.4733 C   0  0  0  0  0  0  0  0  0  0  0  0
    1.8504   -1.2538   -0.1895 C   0  0  0  0  0  0  0  0  0  0  0  0
    1.8476    0.0254    0.6175 C   0  0  0  0  0  0  0  0  0  0  0  0
    1.0622    0.1228    1.7752 C   0  0  0  0  0  0  0  0  0  0  0  0
    1.0563    1.2935    2.5352 C   0  0  0  0  0  0  0  0  0  0  0  0
    1.8359    2.3803    2.1470 C   0  0  0  0  0  0  0  0  0  0  0  0
    2.6276    2.2930    1.0038 C   0  0  0  0  0  0  0  0  0  0  0  0
    2.6380    1.1202    0.2457 C   0  0  0  0  0  0  0  0  0  0  0  0
   -0.3891   -0.8318   -1.2485 N   0  0  0  0  0  0  0  0  0  0  0  0
   -1.3047   -1.6138   -0.5850 C   0  0  0  0  0  0  0  0  0  0  0  0
   -1.0535   -2.7498   -0.1847 O   0  0  0  0  0  0  0  0  0  0  0  0
   -2.6966   -0.9594   -0.3897 C   0  0  0  0  0  0  0  0  0  0  0  0
   -2.6852    0.0069    0.7945 C   0  0  0  0  0  0  0  0  0  0  0  0
   -2.0342    1.3106    0.4301 C   0  0  0  0  0  0  0  0  0  0  0  0
   -1.5290    1.6034   -0.6421 O   0  0  0  0  0  0  0  0  0  0  0  0
   -2.0317    2.1828    1.4557 O   0  0  0  0  0  0  0  0  0  0  0  0
   -3.6911   -2.0347   -0.1386 N   0  0  0  0  0  0  0  0  0  0  0  0
    1.0441   -0.5840   -3.5335 H   0  0  0  0  0  0  0  0  0  0  0  0
    1.5686    0.6448   -2.3895 H   0  0  0  0  0  0  0  0  0  0  0  0
    2.6421   -0.7171   -2.7832 H   0  0  0  0  0  0  0  0  0  0  0  0
    0.9458   -2.2942   -1.8224 H   0  0  0  0  0  0  0  0  0  0  0  0
    1.5116   -2.0712    0.4612 H   0  0  0  0  0  0  0  0  0  0  0  0
    2.8884   -1.5079   -0.4424 H   0  0  0  0  0  0  0  0  0  0  0  0
    0.4555   -0.7215    2.0973 H   0  0  0  0  0  0  0  0  0  0  0  0
    0.4454    1.3536    3.4325 H   0  0  0  0  0  0  0  0  0  0  0  0
    1.8375    3.2896    2.7421 H   0  0  0  0  0  0  0  0  0  0  0  0
    3.2468    3.1354    0.7062 H   0  0  0  0  0  0  0  0  0  0  0  0
    3.2768    1.0667   -0.6325 H   0  0  0  0  0  0  0  0  0  0  0  0
   -0.5913    0.1656   -1.3326 H   0  0  0  0  0  0  0  0  0  0  0  0
   -2.9821   -0.4538   -1.3194 H   0  0  0  0  0  0  0  0  0  0  0  0
   -2.1504   -0.4254    1.6477 H   0  0  0  0  0  0  0  0  0  0  0  0
   -3.7130    0.2390    1.0993 H   0  0  0  0  0  0  0  0  0  0  0  0
   -1.5226    2.9524    1.1238 H   0  0  0  0  0  0  0  0  0  0  0  0
   -3.3122   -2.6282    0.6074 H   0  0  0  0  0  0  0  0  0  0  0  0
   -3.6837   -2.6573   -0.9504 H   0  0  0  0  0  0  0  0  0  0  0  0
  1  2  1  0
  2  3  1  0
  3  4  1  0
  4  5  2  0
  5  6  1  0
  6  7  2  0
  7  8  1  0
  8  9  2  0
  2 10  1  0
 10 11  1  0
 11 12  2  0
 11 13  1  0
 13 14  1  0
 14 15  1  0
 15 16  2  0
 15 17  1  0
 13 18  1  0
  9  4  1  0
  1 19  1  0
  1 20  1  0
  1 21  1  0
  2 22  1  0
  3 23  1  0
  3 24  1  0
  5 25  1  0
  6 26  1  0
  7 27  1  0
  8 28  1  0
  9 29  1  0
 10 30  1  0
 13 31  1  0
 14 32  1  0
 14 33  1  0
 17 34  1  0
 18 35  1  0
 18 36  1  0
M  END
