
     RDKit          3D

 39 39  0  0  0  0  0  0  0  0999 V2000
    0.2870   -2.6006   -2.1175 C   0  0  0  0  0  0  0  0  0  0  0  0
   -0.1480   -2.4437   -0.6613 C   0  0  0  0  0  0  0  0  0  0  0  0
    1.0310   -2.1295    0.2892 C   0  0  0  0  0  0  0  0  0  0  0  0
    1.5784   -0.7208    0.2315 C   0  0  0  0  0  0  0  0  0  0  0  0
    2.4443   -0.3180   -0.7910 C   0  0  0  0  0  0  0  0  0  0  0  0
    2.9406    0.9882   -0.8301 C   0  0  0  0  0  0  0  0  0  0  0  0
    2.5817    1.9155    0.1537 C   0  0  0  0  0  0  0  0  0  0  0  0
    1.7416    1.5068    1.1939 C   0  0  0  0  0  0  0  0  0  0  0  0
    1.2408    0.2033    1.2291 C   0  0  0  0  0  0  0  0  0  0  0  0
    3.1483    3.3038    0.1357 C   0  0  0  0  0  0  0  0  0  0  0  0
   -1.2372   -1.4787   -0.5757 N   0  0  0  0  0  0  0  0  0  0  0  0
   -2.0752   -1.4017    0.5115 C   0  0  0  0  0  0  0  0  0  0  0  0
   -2.0164   -2.1803    1.4624 O   0  0  0  0  0  0  0  0  0  0  0  0
   -3.1220   -0.2597    0.4436 C   0  0  0  0  0  0  0  0  0  0  0  0
   -2.5020    1.0758    0.8540 C   0  0  0  0  0  0  0  0  0  0  0  0
   -1.6689    1.6557   -0.2533 C   0  0  0  0  0  0  0  0  0  0  0  0
   -1.4527    1.1568   -1.3464 O   0  0  0  0  0  0  0  0  0  0  0  0
   -1.1236    2.8390    0.0861 O   0  0  0  0  0  0  0  0  0  0  0  0
   -4.2386   -0.5893    1.3671 N   0  0  0  0  0  0  0  0  0  0  0  0
    0.5937   -1.6466   -2.5577 H   0  0  0  0  0  0  0  0  0  0  0  0
   -0.5449   -2.9766   -2.7240 H   0  0  0  0  0  0  0  0  0  0  0  0
    1.1155   -3.3102   -2.2083 H   0  0  0  0  0  0  0  0  0  0  0  0
   -0.5580   -3.4116   -0.3431 H   0  0  0  0  0  0  0  0  0  0  0  0
    0.7116   -2.3319    1.3205 H   0  0  0  0  0  0  0  0  0  0  0  0
    1.8526   -2.8346    0.1060 H   0  0  0  0  0  0  0  0  0  0  0  0
    2.7517   -1.0199   -1.5624 H   0  0  0  0  0  0  0  0  0  0  0  0
    3.6181    1.2731   -1.6321 H   0  0  0  0  0  0  0  0  0  0  0  0
    1.4697    2.2005    1.9868 H   0  0  0  0  0  0  0  0  0  0  0  0
    0.5896   -0.0911    2.0502 H   0  0  0  0  0  0  0  0  0  0  0  0
    2.4420    4.0182    0.5718 H   0  0  0  0  0  0  0  0  0  0  0  0
    4.0820    3.3349    0.7055 H   0  0  0  0  0  0  0  0  0  0  0  0
    3.3484    3.6310   -0.8901 H   0  0  0  0  0  0  0  0  0  0  0  0
   -1.1868   -0.6645   -1.1902 H   0  0  0  0  0  0  0  0  0  0  0  0
   -3.5325   -0.2176   -0.5719 H   0  0  0  0  0  0  0  0  0  0  0  0
   -1.8707    0.9575    1.7419 H   0  0  0  0  0  0  0  0  0  0  0  0
   -3.2918    1.8047    1.0733 H   0  0  0  0  0  0  0  0  0  0  0  0
   -0.5412    3.0670   -0.6693 H   0  0  0  0  0  0  0  0  0  0  0  0
   -4.6375   -1.4809    1.0628 H   0  0  0  0  0  0  0  0  0  0  0  0
   -3.8208   -0.8238    2.2741 H   0  0  0  0  0  0  0  0  0  0  0  0
  1  2  1  0
  2  3  1  0
  3  4  1  0
  4  5  2  0
  5  6  1  0
  6  7  2  0
  7  8  1  0
  8  9  2  0
  7 10  1  0
  2 11  1  0
 11 12  1  0
 12 13  2  0
 12 14  1  0
 14 15  1  0
 15 16  1  0
 16 17  2  0
 16 18  1  0
 14 19  1  0
  9  4  1  0
  1 20  1  0
  1 21  1  0
  1 22  1  0
  2 23  1  0
  3 24  1  0
  3 25  1  0
  5 26  1  0
  6 27  1  0
  8 28  1  0
  9 29  1  0
 10 30  1  0
 10 31  1  0
 10 32  1  0
 11 33  1  0
 14 34  1  0
 15 35  1  0
 15 36  1  0
 18 37  1  0
 19 38  1  0
 19 39  1  0
M  END
