
     RDKit          3D

 37 37  0  0  0  0  0  0  0  0999 V2000
   -1.6784    1.9643    2.0549 C   0  0  0  0  0  0  0  0  0  0  0  0
   -0.5299    1.7626    1.0691 C   0  0  0  0  0  0  0  0  0  0  0  0
    0.4924    0.9110    1.6757 N   0  0  0  0  0  0  0  0  0  0  0  0
    1.8001    0.9506    1.2207 C   0  0  0  0  0  0  0  0  0  0  0  0
    2.2165    1.8076    0.4473 O   0  0  0  0  0  0  0  0  0  0  0  0
    2.6862   -0.1599    1.8299 C   0  0  0  0  0  0  0  0  0  0  0  0
    4.0529   -0.2129    1.1537 C   0  0  0  0  0  0  0  0  0  0  0  0
    3.9102   -0.6886   -0.2637 C   0  0  0  0  0  0  0  0  0  0  0  0
    2.9331   -1.2124   -0.7708 O   0  0  0  0  0  0  0  0  0  0  0  0
    5.0432   -0.5187   -0.9728 O   0  0  0  0  0  0  0  0  0  0  0  0
    2.8418    0.1059    3.2815 N   0  0  0  0  0  0  0  0  0  0  0  0
   -1.0256    1.1639   -0.2631 C   0  0  0  0  0  0  0  0  0  0  0  0
   -1.6681   -0.0864    0.0103 O   0  0  0  0  0  0  0  0  0  0  0  0
   -2.3212   -0.6874   -1.0286 C   0  0  0  0  0  0  0  0  0  0  0  0
   -2.2195   -0.3342   -2.3743 C   0  0  0  0  0  0  0  0  0  0  0  0
   -2.9500   -1.0358   -3.3393 C   0  0  0  0  0  0  0  0  0  0  0  0
   -3.7776   -2.0938   -2.9636 C   0  0  0  0  0  0  0  0  0  0  0  0
   -3.8730   -2.4564   -1.6226 C   0  0  0  0  0  0  0  0  0  0  0  0
   -3.1436   -1.7561   -0.6606 C   0  0  0  0  0  0  0  0  0  0  0  0
   -2.4635    2.5886    1.6166 H   0  0  0  0  0  0  0  0  0  0  0  0
   -2.1254    1.0105    2.3575 H   0  0  0  0  0  0  0  0  0  0  0  0
   -1.3235    2.4576    2.9653 H   0  0  0  0  0  0  0  0  0  0  0  0
   -0.0764    2.7386    0.8575 H   0  0  0  0  0  0  0  0  0  0  0  0
    0.1684    0.0105    2.0100 H   0  0  0  0  0  0  0  0  0  0  0  0
    2.1661   -1.1177    1.7126 H   0  0  0  0  0  0  0  0  0  0  0  0
    4.7116   -0.9176    1.6740 H   0  0  0  0  0  0  0  0  0  0  0  0
    4.5257    0.7763    1.1463 H   0  0  0  0  0  0  0  0  0  0  0  0
    4.8160   -0.8445   -1.8685 H   0  0  0  0  0  0  0  0  0  0  0  0
    3.3339    0.9951    3.3985 H   0  0  0  0  0  0  0  0  0  0  0  0
    1.9163    0.2639    3.6834 H   0  0  0  0  0  0  0  0  0  0  0  0
   -1.7372    1.8601   -0.7240 H   0  0  0  0  0  0  0  0  0  0  0  0
   -0.1777    1.0027   -0.9380 H   0  0  0  0  0  0  0  0  0  0  0  0
   -1.5756    0.4730   -2.7072 H   0  0  0  0  0  0  0  0  0  0  0  0
   -2.8697   -0.7585   -4.3871 H   0  0  0  0  0  0  0  0  0  0  0  0
   -4.3443   -2.6367   -3.7151 H   0  0  0  0  0  0  0  0  0  0  0  0
   -4.5124   -3.2827   -1.3224 H   0  0  0  0  0  0  0  0  0  0  0  0
   -3.2217   -2.0426    0.3852 H   0  0  0  0  0  0  0  0  0  0  0  0
  1  2  1  0
  2  3  1  0
  3  4  1  0
  4  5  2  0
  4  6  1  0
  6  7  1  0
  7  8  1  0
  8  9  2  0
  8 10  1  0
  6 11  1  0
  2 12  1  0
 12 13  1  0
 13 14  1  0
 14 15  2  0
 15 16  1  0
 16 17  2  0
 17 18  1  0
 18 19  2  0
 19 14  1  0
  1 20  1  0
  1 21  1  0
  1 22  1  0
  2 23  1  0
  3 24  1  0
  6 25  1  0
  7 26  1  0
  7 27  1  0
 10 28  1  0
 11 29  1  0
 11 30  1  0
 12 31  1  0
 12 32  1  0
 15 33  1  0
 16 34  1  0
 17 35  1  0
 18 36  1  0
 19 37  1  0
M  END
