
     RDKit          3D

 36 36  0  0  0  0  0  0  0  0999 V2000
   -0.5239    1.3392   -0.6018 C   0  0  0  0  0  0  0  0  0  0  0  0
   -0.3866   -0.1132   -0.1385 C   0  0  0  0  0  0  0  0  0  0  0  0
   -0.9011   -0.3154    1.3002 C   0  0  0  0  0  0  0  0  0  0  0  0
   -2.3895   -0.1123    1.4600 C   0  0  0  0  0  0  0  0  0  0  0  0
   -3.2942   -1.0416    0.9227 C   0  0  0  0  0  0  0  0  0  0  0  0
   -4.6692   -0.8518    1.0660 C   0  0  0  0  0  0  0  0  0  0  0  0
   -5.1397    0.2640    1.7469 C   0  0  0  0  0  0  0  0  0  0  0  0
   -4.2611    1.1942    2.2883 C   0  0  0  0  0  0  0  0  0  0  0  0
   -2.8854    1.0070    2.1463 C   0  0  0  0  0  0  0  0  0  0  0  0
   -6.4597    0.4455    1.8844 F   0  0  0  0  0  0  0  0  0  0  0  0
    1.0144   -0.5228   -0.2218 N   0  0  0  0  0  0  0  0  0  0  0  0
    1.5809   -0.9512   -1.4019 C   0  0  0  0  0  0  0  0  0  0  0  0
    0.9361   -1.1393   -2.4321 O   0  0  0  0  0  0  0  0  0  0  0  0
    3.1100   -1.1860   -1.3348 C   0  0  0  0  0  0  0  0  0  0  0  0
    3.8581    0.1304   -1.5472 C   0  0  0  0  0  0  0  0  0  0  0  0
    3.8686    0.9614   -0.2953 C   0  0  0  0  0  0  0  0  0  0  0  0
    3.2427    0.7510    0.7319 O   0  0  0  0  0  0  0  0  0  0  0  0
    4.6583    2.0455   -0.4113 O   0  0  0  0  0  0  0  0  0  0  0  0
    3.4863   -2.1487   -2.4004 N   0  0  0  0  0  0  0  0  0  0  0  0
    0.0312    2.0168    0.0565 H   0  0  0  0  0  0  0  0  0  0  0  0
   -0.1242    1.4670   -1.6138 H   0  0  0  0  0  0  0  0  0  0  0  0
   -1.5707    1.6573   -0.6189 H   0  0  0  0  0  0  0  0  0  0  0  0
   -0.9588   -0.7473   -0.8269 H   0  0  0  0  0  0  0  0  0  0  0  0
   -0.6631   -1.3343    1.6357 H   0  0  0  0  0  0  0  0  0  0  0  0
   -0.3554    0.3465    1.9861 H   0  0  0  0  0  0  0  0  0  0  0  0
   -2.9324   -1.9192    0.3903 H   0  0  0  0  0  0  0  0  0  0  0  0
   -5.3740   -1.5657    0.6523 H   0  0  0  0  0  0  0  0  0  0  0  0
   -4.6525    2.0575    2.8167 H   0  0  0  0  0  0  0  0  0  0  0  0
   -2.2047    1.7405    2.5727 H   0  0  0  0  0  0  0  0  0  0  0  0
    1.6483   -0.1728    0.4980 H   0  0  0  0  0  0  0  0  0  0  0  0
    3.3601   -1.6414   -0.3697 H   0  0  0  0  0  0  0  0  0  0  0  0
    4.9050   -0.0745   -1.8034 H   0  0  0  0  0  0  0  0  0  0  0  0
    3.4036    0.7203   -2.3513 H   0  0  0  0  0  0  0  0  0  0  0  0
    4.5935    2.5106    0.4489 H   0  0  0  0  0  0  0  0  0  0  0  0
    3.0815   -1.8023   -3.2775 H   0  0  0  0  0  0  0  0  0  0  0  0
    2.9678   -3.0149   -2.2358 H   0  0  0  0  0  0  0  0  0  0  0  0
  1  2  1  0
  2  3  1  0
  3  4  1  0
  4  5  2  0
  5  6  1  0
  6  7  2  0
  7  8  1  0
  8  9  2  0
  7 10  1  0
  2 11  1  0
 11 12  1  0
 12 13  2  0
 12 14  1  0
 14 15  1  0
 15 16  1  0
 16 17  2  0
 16 18  1  0
 14 19  1  0
  9  4  1  0
  1 20  1  0
  1 21  1  0
  1 22  1  0
  2 23  1  0
  3 24  1  0
  3 25  1  0
  5 26  1  0
  6 27  1  0
  8 28  1  0
  9 29  1  0
 11 30  1  0
 14 31  1  0
 15 32  1  0
 15 33  1  0
 18 34  1  0
 19 35  1  0
 19 36  1  0
M  END
