
     RDKit          3D

 33 33  0  0  0  0  0  0  0  0999 V2000
   -1.4276    1.9791    1.0850 C   0  0  0  0  0  0  0  0  0  0  0  0
   -0.7927    0.6348    1.4384 C   0  0  0  0  0  0  0  0  0  0  0  0
   -1.8148   -0.5196    1.4727 C   0  0  0  0  0  0  0  0  0  0  0  0
   -2.4262   -0.8131    0.1479 C   0  0  0  0  0  0  0  0  0  0  0  0
   -2.0985   -1.6765   -0.8766 C   0  0  0  0  0  0  0  0  0  0  0  0
   -3.0779   -1.4913   -1.8813 C   0  0  0  0  0  0  0  0  0  0  0  0
   -3.9419   -0.5348   -1.4028 C   0  0  0  0  0  0  0  0  0  0  0  0
   -3.5556   -0.1190   -0.1696 O   0  0  0  0  0  0  0  0  0  0  0  0
    0.3305    0.3648    0.5443 N   0  0  0  0  0  0  0  0  0  0  0  0
    1.3380   -0.5093    0.8792 C   0  0  0  0  0  0  0  0  0  0  0  0
    1.4195   -1.0400    1.9863 O   0  0  0  0  0  0  0  0  0  0  0  0
    2.3633   -0.7892   -0.2499 C   0  0  0  0  0  0  0  0  0  0  0  0
    3.1903    0.4580   -0.5647 C   0  0  0  0  0  0  0  0  0  0  0  0
    2.4542    1.3768   -1.4987 C   0  0  0  0  0  0  0  0  0  0  0  0
    1.3047    1.2582   -1.8922 O   0  0  0  0  0  0  0  0  0  0  0  0
    3.2074    2.4261   -1.8787 O   0  0  0  0  0  0  0  0  0  0  0  0
    3.2688   -1.8804    0.1951 N   0  0  0  0  0  0  0  0  0  0  0  0
   -0.6942    2.7865    1.1903 H   0  0  0  0  0  0  0  0  0  0  0  0
   -2.2709    2.2012    1.7468 H   0  0  0  0  0  0  0  0  0  0  0  0
   -1.7833    2.0028    0.0496 H   0  0  0  0  0  0  0  0  0  0  0  0
   -0.3781    0.7244    2.4511 H   0  0  0  0  0  0  0  0  0  0  0  0
   -2.6071   -0.2838    2.1940 H   0  0  0  0  0  0  0  0  0  0  0  0
   -1.3271   -1.4315    1.8395 H   0  0  0  0  0  0  0  0  0  0  0  0
   -1.2569   -2.3549   -0.8932 H   0  0  0  0  0  0  0  0  0  0  0  0
   -3.1495   -1.9950   -2.8348 H   0  0  0  0  0  0  0  0  0  0  0  0
   -4.8338   -0.0666   -1.7951 H   0  0  0  0  0  0  0  0  0  0  0  0
    0.2062    0.5946   -0.4428 H   0  0  0  0  0  0  0  0  0  0  0  0
    1.8171   -1.1510   -1.1286 H   0  0  0  0  0  0  0  0  0  0  0  0
    4.1204    0.1730   -1.0720 H   0  0  0  0  0  0  0  0  0  0  0  0
    3.4376    1.0109    0.3486 H   0  0  0  0  0  0  0  0  0  0  0  0
    2.6334    2.9511   -2.4751 H   0  0  0  0  0  0  0  0  0  0  0  0
    2.6834   -2.6832    0.4420 H   0  0  0  0  0  0  0  0  0  0  0  0
    3.6613   -1.6032    1.1006 H   0  0  0  0  0  0  0  0  0  0  0  0
  1  2  1  0
  2  3  1  0
  3  4  1  0
  4  5  2  0
  5  6  1  0
  6  7  2  0
  7  8  1  0
  2  9  1  0
  9 10  1  0
 10 11  2  0
 10 12  1  0
 12 13  1  0
 13 14  1  0
 14 15  2  0
 14 16  1  0
 12 17  1  0
  8  4  1  0
  1 18  1  0
  1 19  1  0
  1 20  1  0
  2 21  1  0
  3 22  1  0
  3 23  1  0
  5 24  1  0
  6 25  1  0
  7 26  1  0
  9 27  1  0
 12 28  1  0
 13 29  1  0
 13 30  1  0
 16 31  1  0
 17 32  1  0
 17 33  1  0
M  END
