
     RDKit          3D

 42 42  0  0  0  0  0  0  0  0999 V2000
    0.5209   -3.2265    0.6351 C   0  0  0  0  0  0  0  0  0  0  0  0
   -0.0876   -1.8677    0.2748 C   0  0  0  0  0  0  0  0  0  0  0  0
    0.7794   -0.8084    0.7560 N   0  0  0  0  0  0  0  0  0  0  0  0
    1.8978   -0.3902    0.0614 C   0  0  0  0  0  0  0  0  0  0  0  0
    2.1939   -0.7836   -1.0615 O   0  0  0  0  0  0  0  0  0  0  0  0
    2.7216    0.6520    0.8534 C   0  0  0  0  0  0  0  0  0  0  0  0
    4.0792    0.8888    0.1954 C   0  0  0  0  0  0  0  0  0  0  0  0
    3.9162    1.6693   -1.0793 C   0  0  0  0  0  0  0  0  0  0  0  0
    3.0282    2.4612   -1.3458 O   0  0  0  0  0  0  0  0  0  0  0  0
    4.9370    1.4666   -1.9349 O   0  0  0  0  0  0  0  0  0  0  0  0
    2.8772    0.1606    2.2525 N   0  0  0  0  0  0  0  0  0  0  0  0
   -1.5027   -1.7494    0.8697 C   0  0  0  0  0  0  0  0  0  0  0  0
   -2.3799   -0.5661    0.4017 C   0  0  0  0  0  0  0  0  0  0  0  0
   -2.5766   -0.5297   -1.1216 C   0  0  0  0  0  0  0  0  0  0  0  0
   -3.5464    0.5794   -1.5298 C   0  0  0  0  0  0  0  0  0  0  0  0
   -3.1049    1.9398   -0.9968 C   0  0  0  0  0  0  0  0  0  0  0  0
   -2.8793    1.9098    0.5125 C   0  0  0  0  0  0  0  0  0  0  0  0
   -1.9035    0.8023    0.9114 C   0  0  0  0  0  0  0  0  0  0  0  0
    1.5213   -3.3371    0.2027 H   0  0  0  0  0  0  0  0  0  0  0  0
   -0.0993   -4.0459    0.2574 H   0  0  0  0  0  0  0  0  0  0  0  0
    0.6173   -3.3413    1.7206 H   0  0  0  0  0  0  0  0  0  0  0  0
   -0.1321   -1.8098   -0.8178 H   0  0  0  0  0  0  0  0  0  0  0  0
    0.8179   -0.6115    1.7539 H   0  0  0  0  0  0  0  0  0  0  0  0
    2.1317    1.5757    0.8866 H   0  0  0  0  0  0  0  0  0  0  0  0
    4.5720   -0.0654   -0.0261 H   0  0  0  0  0  0  0  0  0  0  0  0
    4.7355    1.4743    0.8495 H   0  0  0  0  0  0  0  0  0  0  0  0
    4.6958    1.9971   -2.7232 H   0  0  0  0  0  0  0  0  0  0  0  0
    3.4113    0.8497    2.7832 H   0  0  0  0  0  0  0  0  0  0  0  0
    3.4545   -0.6830    2.2368 H   0  0  0  0  0  0  0  0  0  0  0  0
   -1.4352   -1.7197    1.9657 H   0  0  0  0  0  0  0  0  0  0  0  0
   -2.0525   -2.6690    0.6262 H   0  0  0  0  0  0  0  0  0  0  0  0
   -3.3694   -0.7411    0.8497 H   0  0  0  0  0  0  0  0  0  0  0  0
   -1.6192   -0.3582   -1.6273 H   0  0  0  0  0  0  0  0  0  0  0  0
   -2.9608   -1.4939   -1.4744 H   0  0  0  0  0  0  0  0  0  0  0  0
   -3.6218    0.6188   -2.6223 H   0  0  0  0  0  0  0  0  0  0  0  0
   -4.5483    0.3460   -1.1489 H   0  0  0  0  0  0  0  0  0  0  0  0
   -2.1766    2.2421   -1.4971 H   0  0  0  0  0  0  0  0  0  0  0  0
   -3.8601    2.6950   -1.2421 H   0  0  0  0  0  0  0  0  0  0  0  0
   -3.8376    1.7554    1.0235 H   0  0  0  0  0  0  0  0  0  0  0  0
   -2.4920    2.8793    0.8459 H   0  0  0  0  0  0  0  0  0  0  0  0
   -0.9216    1.0507    0.4960 H   0  0  0  0  0  0  0  0  0  0  0  0
   -1.8015    0.7839    2.0025 H   0  0  0  0  0  0  0  0  0  0  0  0
  1  2  1  0
  2  3  1  0
  3  4  1  0
  4  5  2  0
  4  6  1  0
  6  7  1  0
  7  8  1  0
  8  9  2  0
  8 10  1  0
  6 11  1  0
  2 12  1  0
 12 13  1  0
 13 14  1  0
 14 15  1  0
 15 16  1  0
 16 17  1  0
 17 18  1  0
 18 13  1  0
  1 19  1  0
  1 20  1  0
  1 21  1  0
  2 22  1  0
  3 23  1  0
  6 24  1  0
  7 25  1  0
  7 26  1  0
 10 27  1  0
 11 28  1  0
 11 29  1  0
 12 30  1  0
 12 31  1  0
 13 32  1  0
 14 33  1  0
 14 34  1  0
 15 35  1  0
 15 36  1  0
 16 37  1  0
 16 38  1  0
 17 39  1  0
 17 40  1  0
 18 41  1  0
 18 42  1  0
M  END
