
     RDKit          3D

 35 34  0  0  0  0  0  0  0  0999 V2000
    4.4350    1.8702    1.2794 C   0  0  0  0  0  0  0  0  0  0  0  0
    3.0393    1.2735    1.3668 C   0  0  0  0  0  0  0  0  0  0  0  0
    2.3447    1.2707    0.0041 C   0  0  0  0  0  0  0  0  0  0  0  0
    0.9386    0.6728    0.1008 C   0  0  0  0  0  0  0  0  0  0  0  0
    0.2360    0.5342   -1.2623 C   0  0  0  0  0  0  0  0  0  0  0  0
   -1.0319   -0.1672   -1.0947 N   0  0  0  0  0  0  0  0  0  0  0  0
   -1.1024   -1.5403   -1.0144 C   0  0  0  0  0  0  0  0  0  0  0  0
   -0.1350   -2.2796   -1.1896 O   0  0  0  0  0  0  0  0  0  0  0  0
   -2.5094   -2.0945   -0.6826 C   0  0  0  0  0  0  0  0  0  0  0  0
   -2.7384   -2.0826    0.8289 C   0  0  0  0  0  0  0  0  0  0  0  0
   -3.0898   -0.7060    1.3178 C   0  0  0  0  0  0  0  0  0  0  0  0
   -3.0828    0.3290    0.6703 O   0  0  0  0  0  0  0  0  0  0  0  0
   -3.4166   -0.6987    2.6239 O   0  0  0  0  0  0  0  0  0  0  0  0
   -2.5982   -3.4881   -1.1876 N   0  0  0  0  0  0  0  0  0  0  0  0
   -0.0225    1.8825   -1.9307 C   0  0  0  0  0  0  0  0  0  0  0  0
    4.9132    1.8616    2.2639 H   0  0  0  0  0  0  0  0  0  0  0  0
    4.3975    2.9066    0.9291 H   0  0  0  0  0  0  0  0  0  0  0  0
    5.0642    1.2970    0.5910 H   0  0  0  0  0  0  0  0  0  0  0  0
    3.1103    0.2494    1.7514 H   0  0  0  0  0  0  0  0  0  0  0  0
    2.4457    1.8501    2.0858 H   0  0  0  0  0  0  0  0  0  0  0  0
    2.9420    0.6920   -0.7107 H   0  0  0  0  0  0  0  0  0  0  0  0
    2.2919    2.2986   -0.3712 H   0  0  0  0  0  0  0  0  0  0  0  0
    1.0085   -0.3168    0.5710 H   0  0  0  0  0  0  0  0  0  0  0  0
    0.3234    1.2852    0.7731 H   0  0  0  0  0  0  0  0  0  0  0  0
    0.8656   -0.0705   -1.9266 H   0  0  0  0  0  0  0  0  0  0  0  0
   -1.8146    0.3649   -0.7128 H   0  0  0  0  0  0  0  0  0  0  0  0
   -3.2632   -1.4992   -1.2105 H   0  0  0  0  0  0  0  0  0  0  0  0
   -1.8471   -2.4250    1.3672 H   0  0  0  0  0  0  0  0  0  0  0  0
   -3.5817   -2.7366    1.0829 H   0  0  0  0  0  0  0  0  0  0  0  0
   -3.6254    0.2355    2.8341 H   0  0  0  0  0  0  0  0  0  0  0  0
   -1.7737   -3.9886   -0.8369 H   0  0  0  0  0  0  0  0  0  0  0  0
   -2.4377   -3.4634   -2.1975 H   0  0  0  0  0  0  0  0  0  0  0  0
   -0.6114    2.5405   -1.2820 H   0  0  0  0  0  0  0  0  0  0  0  0
   -0.5857    1.7498   -2.8614 H   0  0  0  0  0  0  0  0  0  0  0  0
    0.9116    2.3929   -2.1822 H   0  0  0  0  0  0  0  0  0  0  0  0
  1  2  1  0
  2  3  1  0
  3  4  1  0
  4  5  1  0
  5  6  1  0
  6  7  1  0
  7  8  2  0
  7  9  1  0
  9 10  1  0
 10 11  1  0
 11 12  2  0
 11 13  1  0
  9 14  1  0
  5 15  1  0
  1 16  1  0
  1 17  1  0
  1 18  1  0
  2 19  1  0
  2 20  1  0
  3 21  1  0
  3 22  1  0
  4 23  1  0
  4 24  1  0
  5 25  1  0
  6 26  1  0
  9 27  1  0
 10 28  1  0
 10 29  1  0
 13 30  1  0
 14 31  1  0
 14 32  1  0
 15 33  1  0
 15 34  1  0
 15 35  1  0
M  END
