
     RDKit          3D

 38 37  0  0  0  0  0  0  0  0999 V2000
    5.2484    1.8324    0.0604 C   0  0  0  0  0  0  0  0  0  0  0  0
    4.4444    0.5930   -0.2989 C   0  0  0  0  0  0  0  0  0  0  0  0
    2.9432    0.8352   -0.1446 C   0  0  0  0  0  0  0  0  0  0  0  0
    2.1374   -0.4148   -0.5066 C   0  0  0  0  0  0  0  0  0  0  0  0
    0.6342   -0.1674   -0.3553 C   0  0  0  0  0  0  0  0  0  0  0  0
   -0.2211   -1.4258   -0.5913 C   0  0  0  0  0  0  0  0  0  0  0  0
   -1.6189   -1.1355   -0.2920 N   0  0  0  0  0  0  0  0  0  0  0  0
   -2.1085   -1.1477    0.9953 C   0  0  0  0  0  0  0  0  0  0  0  0
   -1.4480   -1.5102    1.9676 O   0  0  0  0  0  0  0  0  0  0  0  0
   -3.5729   -0.6646    1.1319 C   0  0  0  0  0  0  0  0  0  0  0  0
   -3.6192    0.8607    1.2236 C   0  0  0  0  0  0  0  0  0  0  0  0
   -3.4634    1.4947   -0.1296 C   0  0  0  0  0  0  0  0  0  0  0  0
   -3.2021    0.9313   -1.1807 O   0  0  0  0  0  0  0  0  0  0  0  0
   -3.6255    2.8306   -0.0865 O   0  0  0  0  0  0  0  0  0  0  0  0
   -4.1506   -1.2544    2.3663 N   0  0  0  0  0  0  0  0  0  0  0  0
   -0.1141   -1.9503   -2.0213 C   0  0  0  0  0  0  0  0  0  0  0  0
    4.9835    2.6735   -0.5882 H   0  0  0  0  0  0  0  0  0  0  0  0
    5.0690    2.1290    1.0987 H   0  0  0  0  0  0  0  0  0  0  0  0
    6.3189    1.6369   -0.0569 H   0  0  0  0  0  0  0  0  0  0  0  0
    4.6711    0.3045   -1.3319 H   0  0  0  0  0  0  0  0  0  0  0  0
    4.7560   -0.2371    0.3458 H   0  0  0  0  0  0  0  0  0  0  0  0
    2.7233    1.1281    0.8893 H   0  0  0  0  0  0  0  0  0  0  0  0
    2.6370    1.6686   -0.7887 H   0  0  0  0  0  0  0  0  0  0  0  0
    2.3698   -0.7022   -1.5379 H   0  0  0  0  0  0  0  0  0  0  0  0
    2.4401   -1.2462    0.1411 H   0  0  0  0  0  0  0  0  0  0  0  0
    0.4402    0.2143    0.6556 H   0  0  0  0  0  0  0  0  0  0  0  0
    0.3204    0.6273   -1.0449 H   0  0  0  0  0  0  0  0  0  0  0  0
    0.1096   -2.2141    0.0961 H   0  0  0  0  0  0  0  0  0  0  0  0
   -2.1476   -0.6096   -0.9889 H   0  0  0  0  0  0  0  0  0  0  0  0
   -4.1543   -1.0363    0.2803 H   0  0  0  0  0  0  0  0  0  0  0  0
   -4.5923    1.1808    1.6161 H   0  0  0  0  0  0  0  0  0  0  0  0
   -2.8277    1.2422    1.8789 H   0  0  0  0  0  0  0  0  0  0  0  0
   -3.5052    3.1367   -1.0097 H   0  0  0  0  0  0  0  0  0  0  0  0
   -3.4921   -1.0606    3.1292 H   0  0  0  0  0  0  0  0  0  0  0  0
   -4.1025   -2.2722    2.2762 H   0  0  0  0  0  0  0  0  0  0  0  0
   -0.3913   -1.1791   -2.7485 H   0  0  0  0  0  0  0  0  0  0  0  0
   -0.7888   -2.8007   -2.1716 H   0  0  0  0  0  0  0  0  0  0  0  0
    0.8997   -2.2911   -2.2503 H   0  0  0  0  0  0  0  0  0  0  0  0
  1  2  1  0
  2  3  1  0
  3  4  1  0
  4  5  1  0
  5  6  1  0
  6  7  1  0
  7  8  1  0
  8  9  2  0
  8 10  1  0
 10 11  1  0
 11 12  1  0
 12 13  2  0
 12 14  1  0
 10 15  1  0
  6 16  1  0
  1 17  1  0
  1 18  1  0
  1 19  1  0
  2 20  1  0
  2 21  1  0
  3 22  1  0
  3 23  1  0
  4 24  1  0
  4 25  1  0
  5 26  1  0
  5 27  1  0
  6 28  1  0
  7 29  1  0
 10 30  1  0
 11 31  1  0
 11 32  1  0
 14 33  1  0
 15 34  1  0
 15 35  1  0
 16 36  1  0
 16 37  1  0
 16 38  1  0
M  END
