
     RDKit          3D

 38 37  0  0  0  0  0  0  0  0999 V2000
   -3.7896   -0.0410   -1.2748 C   0  0  0  0  0  0  0  0  0  0  0  0
   -2.4135    0.6171   -1.3704 C   0  0  0  0  0  0  0  0  0  0  0  0
   -1.5340    0.3309   -0.1375 C   0  0  0  0  0  0  0  0  0  0  0  0
   -1.1900   -1.1473    0.0937 C   0  0  0  0  0  0  0  0  0  0  0  0
   -0.3374   -1.3764    1.3569 C   0  0  0  0  0  0  0  0  0  0  0  0
    0.9832   -0.7799    1.2099 N   0  0  0  0  0  0  0  0  0  0  0  0
    1.3248    0.4285    1.7732 C   0  0  0  0  0  0  0  0  0  0  0  0
    0.5886    1.0570    2.5317 O   0  0  0  0  0  0  0  0  0  0  0  0
    2.7233    0.9530    1.3661 C   0  0  0  0  0  0  0  0  0  0  0  0
    2.6422    1.6767    0.0216 C   0  0  0  0  0  0  0  0  0  0  0  0
    2.5620    0.7041   -1.1212 C   0  0  0  0  0  0  0  0  0  0  0  0
    2.5329   -0.5143   -1.0510 O   0  0  0  0  0  0  0  0  0  0  0  0
    2.5072    1.3262   -2.3140 O   0  0  0  0  0  0  0  0  0  0  0  0
    3.1976    1.8958    2.4104 N   0  0  0  0  0  0  0  0  0  0  0  0
   -0.1825   -2.8719    1.6265 C   0  0  0  0  0  0  0  0  0  0  0  0
   -1.7230    0.2285   -2.6780 C   0  0  0  0  0  0  0  0  0  0  0  0
   -3.7263   -1.1316   -1.3427 H   0  0  0  0  0  0  0  0  0  0  0  0
   -4.2803    0.2165   -0.3304 H   0  0  0  0  0  0  0  0  0  0  0  0
   -4.4354    0.3025   -2.0902 H   0  0  0  0  0  0  0  0  0  0  0  0
   -2.5736    1.7032   -1.3975 H   0  0  0  0  0  0  0  0  0  0  0  0
   -2.0419    0.7209    0.7538 H   0  0  0  0  0  0  0  0  0  0  0  0
   -0.6093    0.9098   -0.2441 H   0  0  0  0  0  0  0  0  0  0  0  0
   -2.1182   -1.7216    0.1921 H   0  0  0  0  0  0  0  0  0  0  0  0
   -0.6556   -1.5433   -0.7780 H   0  0  0  0  0  0  0  0  0  0  0  0
   -0.8423   -0.9227    2.2179 H   0  0  0  0  0  0  0  0  0  0  0  0
    1.5834   -1.1472    0.4709 H   0  0  0  0  0  0  0  0  0  0  0  0
    3.4255    0.1123    1.3307 H   0  0  0  0  0  0  0  0  0  0  0  0
    3.5451    2.2794   -0.1348 H   0  0  0  0  0  0  0  0  0  0  0  0
    1.7644    2.3322   -0.0185 H   0  0  0  0  0  0  0  0  0  0  0  0
    2.4588    0.6079   -2.9789 H   0  0  0  0  0  0  0  0  0  0  0  0
    2.4435    2.5734    2.5692 H   0  0  0  0  0  0  0  0  0  0  0  0
    3.2359    1.3852    3.2959 H   0  0  0  0  0  0  0  0  0  0  0  0
    0.4176   -3.0426    2.5271 H   0  0  0  0  0  0  0  0  0  0  0  0
    0.3211   -3.3767    0.7943 H   0  0  0  0  0  0  0  0  0  0  0  0
   -1.1577   -3.3468    1.7751 H   0  0  0  0  0  0  0  0  0  0  0  0
   -1.6094   -0.8560   -2.7724 H   0  0  0  0  0  0  0  0  0  0  0  0
   -0.7296    0.6845   -2.7453 H   0  0  0  0  0  0  0  0  0  0  0  0
   -2.3074    0.5750   -3.5373 H   0  0  0  0  0  0  0  0  0  0  0  0
  1  2  1  0
  2  3  1  0
  3  4  1  0
  4  5  1  0
  5  6  1  0
  6  7  1  0
  7  8  2  0
  7  9  1  0
  9 10  1  0
 10 11  1  0
 11 12  2  0
 11 13  1  0
  9 14  1  0
  5 15  1  0
  2 16  1  0
  1 17  1  0
  1 18  1  0
  1 19  1  0
  2 20  1  0
  3 21  1  0
  3 22  1  0
  4 23  1  0
  4 24  1  0
  5 25  1  0
  6 26  1  0
  9 27  1  0
 10 28  1  0
 10 29  1  0
 13 30  1  0
 14 31  1  0
 14 32  1  0
 15 33  1  0
 15 34  1  0
 15 35  1  0
 16 36  1  0
 16 37  1  0
 16 38  1  0
M  END
