
     RDKit          3D

 36 35  0  0  0  0  0  0  0  0999 V2000
   -0.3385   -2.4229    1.6419 C   0  0  0  0  0  0  0  0  0  0  0  0
   -0.0766   -1.6400    0.3571 C   0  0  0  0  0  0  0  0  0  0  0  0
   -1.3318   -1.0656   -0.1154 N   0  0  0  0  0  0  0  0  0  0  0  0
   -1.5508   -0.7898   -1.4472 C   0  0  0  0  0  0  0  0  0  0  0  0
   -0.7721   -1.1160   -2.3416 O   0  0  0  0  0  0  0  0  0  0  0  0
   -2.8682   -0.0316   -1.7403 C   0  0  0  0  0  0  0  0  0  0  0  0
   -2.6645    1.4723   -1.5552 C   0  0  0  0  0  0  0  0  0  0  0  0
   -2.6947    1.8534   -0.1020 C   0  0  0  0  0  0  0  0  0  0  0  0
   -2.7135    1.0976    0.8569 O   0  0  0  0  0  0  0  0  0  0  0  0
   -2.6754    3.1881    0.0737 O   0  0  0  0  0  0  0  0  0  0  0  0
   -3.2703   -0.3099   -3.1423 N   0  0  0  0  0  0  0  0  0  0  0  0
    0.9663   -0.5278    0.5482 C   0  0  0  0  0  0  0  0  0  0  0  0
    2.3585   -1.0588    0.8829 C   0  0  0  0  0  0  0  0  0  0  0  0
    3.3230   -0.0050    0.8922 O   0  0  0  0  0  0  0  0  0  0  0  0
    3.3432    0.7349    2.1101 C   0  0  0  0  0  0  0  0  0  0  0  0
    4.4306    1.7868    2.0096 C   0  0  0  0  0  0  0  0  0  0  0  0
    0.5530   -2.9630    1.9732 H   0  0  0  0  0  0  0  0  0  0  0  0
   -1.1331   -3.1618    1.4879 H   0  0  0  0  0  0  0  0  0  0  0  0
   -0.6604   -1.7594    2.4522 H   0  0  0  0  0  0  0  0  0  0  0  0
    0.2813   -2.3375   -0.4101 H   0  0  0  0  0  0  0  0  0  0  0  0
   -1.9040   -0.5629    0.5645 H   0  0  0  0  0  0  0  0  0  0  0  0
   -3.6570   -0.4164   -1.0838 H   0  0  0  0  0  0  0  0  0  0  0  0
   -3.4782    2.0205   -2.0460 H   0  0  0  0  0  0  0  0  0  0  0  0
   -1.7082    1.7988   -1.9796 H   0  0  0  0  0  0  0  0  0  0  0  0
   -2.6974    3.3244    1.0438 H   0  0  0  0  0  0  0  0  0  0  0  0
   -3.3893   -1.3214   -3.2372 H   0  0  0  0  0  0  0  0  0  0  0  0
   -2.4535   -0.1189   -3.7337 H   0  0  0  0  0  0  0  0  0  0  0  0
    1.0369    0.0815   -0.3626 H   0  0  0  0  0  0  0  0  0  0  0  0
    0.6275    0.1663    1.3271 H   0  0  0  0  0  0  0  0  0  0  0  0
    2.3807   -1.5930    1.8386 H   0  0  0  0  0  0  0  0  0  0  0  0
    2.6729   -1.7643    0.1062 H   0  0  0  0  0  0  0  0  0  0  0  0
    3.5555    0.0630    2.9487 H   0  0  0  0  0  0  0  0  0  0  0  0
    2.3773    1.2217    2.2755 H   0  0  0  0  0  0  0  0  0  0  0  0
    5.4046    1.3190    1.8321 H   0  0  0  0  0  0  0  0  0  0  0  0
    4.2407    2.4580    1.1655 H   0  0  0  0  0  0  0  0  0  0  0  0
    4.4857    2.3799    2.9268 H   0  0  0  0  0  0  0  0  0  0  0  0
  1  2  1  0
  2  3  1  0
  3  4  1  0
  4  5  2  0
  4  6  1  0
  6  7  1  0
  7  8  1  0
  8  9  2  0
  8 10  1  0
  6 11  1  0
  2 12  1  0
 12 13  1  0
 13 14  1  0
 14 15  1  0
 15 16  1  0
  1 17  1  0
  1 18  1  0
  1 19  1  0
  2 20  1  0
  3 21  1  0
  6 22  1  0
  7 23  1  0
  7 24  1  0
 10 25  1  0
 11 26  1  0
 11 27  1  0
 12 28  1  0
 12 29  1  0
 13 30  1  0
 13 31  1  0
 15 32  1  0
 15 33  1  0
 16 34  1  0
 16 35  1  0
 16 36  1  0
M  END
