
     RDKit          3D

 14 13  0  0  0  0  0  0  0  0999 V2000
   -2.0161    0.8426   -0.5248 O   0  0  0  0  0  0  0  0  0  0  0  0
   -1.0397   -0.1991   -0.4199 C   0  0  0  0  0  0  0  0  0  0  0  0
    0.0594    0.2731    0.5347 C   0  0  0  0  0  0  0  0  0  0  0  0
    1.1654   -0.7651    0.7061 C   0  0  0  0  0  0  0  0  0  0  0  0
    1.8151   -1.0014   -0.5424 O   0  0  0  0  0  0  0  0  0  0  0  0
    0.6421    1.4726   -0.0051 O   0  0  0  0  0  0  0  0  0  0  0  0
   -2.6950    0.5245   -1.1467 H   0  0  0  0  0  0  0  0  0  0  0  0
   -1.5283   -1.1040   -0.0468 H   0  0  0  0  0  0  0  0  0  0  0  0
   -0.6460   -0.3781   -1.4254 H   0  0  0  0  0  0  0  0  0  0  0  0
   -0.3720    0.5332    1.5076 H   0  0  0  0  0  0  0  0  0  0  0  0
    1.9270   -0.4028    1.4043 H   0  0  0  0  0  0  0  0  0  0  0  0
    0.7699   -1.7144    1.0791 H   0  0  0  0  0  0  0  0  0  0  0  0
    2.0453   -0.1095   -0.8740 H   0  0  0  0  0  0  0  0  0  0  0  0
   -0.1272    2.0284   -0.2467 H   0  0  0  0  0  0  0  0  0  0  0  0
  1  2  1  0
  2  3  1  0
  3  4  1  0
  4  5  1  0
  3  6  1  0
  1  7  1  0
  2  8  1  0
  2  9  1  0
  3 10  1  0
  4 11  1  0
  4 12  1  0
  5 13  1  0
  6 14  1  0
M  END
