
     RDKit          3D

 41 40  0  0  0  0  0  0  0  0999 V2000
   -4.7610    1.0113    0.9224 C   0  0  0  0  0  0  0  0  0  0  0  0
   -4.7550    0.4248   -0.4805 C   0  0  0  0  0  0  0  0  0  0  0  0
   -3.8274    1.1628   -1.4488 C   0  0  0  0  0  0  0  0  0  0  0  0
   -2.3483    1.2031   -1.0526 C   0  0  0  0  0  0  0  0  0  0  0  0
   -1.7134   -0.1844   -0.9266 C   0  0  0  0  0  0  0  0  0  0  0  0
   -0.2110   -0.0795   -0.6475 C   0  0  0  0  0  0  0  0  0  0  0  0
    0.4603   -1.4403   -0.3863 C   0  0  0  0  0  0  0  0  0  0  0  0
    1.8509   -1.2375    0.0043 N   0  0  0  0  0  0  0  0  0  0  0  0
    2.2072   -0.9086    1.2934 C   0  0  0  0  0  0  0  0  0  0  0  0
    1.4089   -0.8732    2.2286 O   0  0  0  0  0  0  0  0  0  0  0  0
    3.7084   -0.5815    1.4831 C   0  0  0  0  0  0  0  0  0  0  0  0
    3.9786    0.8812    1.1297 C   0  0  0  0  0  0  0  0  0  0  0  0
    4.0519    1.0797   -0.3578 C   0  0  0  0  0  0  0  0  0  0  0  0
    3.8097    0.2535   -1.2234 O   0  0  0  0  0  0  0  0  0  0  0  0
    4.4112    2.3351   -0.6857 O   0  0  0  0  0  0  0  0  0  0  0  0
    4.0680   -0.8242    2.9033 N   0  0  0  0  0  0  0  0  0  0  0  0
    0.4111   -2.3633   -1.6016 C   0  0  0  0  0  0  0  0  0  0  0  0
   -5.5151    0.5085    1.5363 H   0  0  0  0  0  0  0  0  0  0  0  0
   -3.7931    0.8812    1.4154 H   0  0  0  0  0  0  0  0  0  0  0  0
   -4.9991    2.0794    0.9009 H   0  0  0  0  0  0  0  0  0  0  0  0
   -4.4904   -0.6371   -0.4326 H   0  0  0  0  0  0  0  0  0  0  0  0
   -5.7752    0.4698   -0.8809 H   0  0  0  0  0  0  0  0  0  0  0  0
   -3.9175    0.6972   -2.4381 H   0  0  0  0  0  0  0  0  0  0  0  0
   -4.1825    2.1949   -1.5618 H   0  0  0  0  0  0  0  0  0  0  0  0
   -2.2261    1.7553   -0.1137 H   0  0  0  0  0  0  0  0  0  0  0  0
   -1.8084    1.7751   -1.8178 H   0  0  0  0  0  0  0  0  0  0  0  0
   -1.8859   -0.7414   -1.8539 H   0  0  0  0  0  0  0  0  0  0  0  0
   -2.1901   -0.7421   -0.1130 H   0  0  0  0  0  0  0  0  0  0  0  0
   -0.0599    0.5692    0.2253 H   0  0  0  0  0  0  0  0  0  0  0  0
    0.2861    0.4221   -1.4882 H   0  0  0  0  0  0  0  0  0  0  0  0
   -0.0512   -1.9343    0.4490 H   0  0  0  0  0  0  0  0  0  0  0  0
    2.5182   -1.0182   -0.7362 H   0  0  0  0  0  0  0  0  0  0  0  0
    4.3050   -1.2633    0.8661 H   0  0  0  0  0  0  0  0  0  0  0  0
    4.9471    1.1909    1.5413 H   0  0  0  0  0  0  0  0  0  0  0  0
    3.1958    1.5361    1.5291 H   0  0  0  0  0  0  0  0  0  0  0  0
    4.4280    2.3529   -1.6655 H   0  0  0  0  0  0  0  0  0  0  0  0
    3.3770   -0.3285    3.4777 H   0  0  0  0  0  0  0  0  0  0  0  0
    3.8734   -1.8070    3.1094 H   0  0  0  0  0  0  0  0  0  0  0  0
   -0.6165   -2.6366   -1.8582 H   0  0  0  0  0  0  0  0  0  0  0  0
    0.8714   -1.8917   -2.4769 H   0  0  0  0  0  0  0  0  0  0  0  0
    0.9587   -3.2916   -1.4032 H   0  0  0  0  0  0  0  0  0  0  0  0
  1  2  1  0
  2  3  1  0
  3  4  1  0
  4  5  1  0
  5  6  1  0
  6  7  1  0
  7  8  1  0
  8  9  1  0
  9 10  2  0
  9 11  1  0
 11 12  1  0
 12 13  1  0
 13 14  2  0
 13 15  1  0
 11 16  1  0
  7 17  1  0
  1 18  1  0
  1 19  1  0
  1 20  1  0
  2 21  1  0
  2 22  1  0
  3 23  1  0
  3 24  1  0
  4 25  1  0
  4 26  1  0
  5 27  1  0
  5 28  1  0
  6 29  1  0
  6 30  1  0
  7 31  1  0
  8 32  1  0
 11 33  1  0
 12 34  1  0
 12 35  1  0
 15 36  1  0
 16 37  1  0
 16 38  1  0
 17 39  1  0
 17 40  1  0
 17 41  1  0
M  END
