
     RDKit          3D

 39 39  0  0  0  0  0  0  0  0999 V2000
   -0.1514   -2.9644   -1.3716 C   0  0  0  0  0  0  0  0  0  0  0  0
   -0.5800   -2.0976   -0.1934 C   0  0  0  0  0  0  0  0  0  0  0  0
   -0.2805   -0.6040   -0.4164 C   0  0  0  0  0  0  0  0  0  0  0  0
   -0.8206    0.2677    0.7410 C   0  0  0  0  0  0  0  0  0  0  0  0
   -2.3273    0.3423    0.8023 C   0  0  0  0  0  0  0  0  0  0  0  0
   -3.0375    1.0674   -0.1648 C   0  0  0  0  0  0  0  0  0  0  0  0
   -4.4303    1.1351   -0.1169 C   0  0  0  0  0  0  0  0  0  0  0  0
   -5.1261    0.4813    0.8981 C   0  0  0  0  0  0  0  0  0  0  0  0
   -4.4297   -0.2391    1.8668 C   0  0  0  0  0  0  0  0  0  0  0  0
   -3.0363   -0.3080    1.8209 C   0  0  0  0  0  0  0  0  0  0  0  0
    1.1613   -0.3996   -0.5569 N   0  0  0  0  0  0  0  0  0  0  0  0
    1.6795    0.6959   -1.2104 C   0  0  0  0  0  0  0  0  0  0  0  0
    0.9836    1.5206   -1.8008 O   0  0  0  0  0  0  0  0  0  0  0  0
    3.2214    0.8160   -1.1453 C   0  0  0  0  0  0  0  0  0  0  0  0
    3.6431    1.5148    0.1473 C   0  0  0  0  0  0  0  0  0  0  0  0
    3.5965    0.5739    1.3179 C   0  0  0  0  0  0  0  0  0  0  0  0
    3.1391   -0.5580    1.3341 O   0  0  0  0  0  0  0  0  0  0  0  0
    4.1128    1.1241    2.4329 O   0  0  0  0  0  0  0  0  0  0  0  0
    3.6816    1.6094   -2.3125 N   0  0  0  0  0  0  0  0  0  0  0  0
    0.9319   -2.9295   -1.5226 H   0  0  0  0  0  0  0  0  0  0  0  0
   -0.4297   -4.0076   -1.1911 H   0  0  0  0  0  0  0  0  0  0  0  0
   -0.6400   -2.6384   -2.2953 H   0  0  0  0  0  0  0  0  0  0  0  0
   -1.6545   -2.2473   -0.0405 H   0  0  0  0  0  0  0  0  0  0  0  0
   -0.0727   -2.4534    0.7119 H   0  0  0  0  0  0  0  0  0  0  0  0
   -0.7484   -0.2862   -1.3570 H   0  0  0  0  0  0  0  0  0  0  0  0
   -0.4424    1.2949    0.6494 H   0  0  0  0  0  0  0  0  0  0  0  0
   -0.4205   -0.0980    1.6962 H   0  0  0  0  0  0  0  0  0  0  0  0
   -2.5061    1.5867   -0.9608 H   0  0  0  0  0  0  0  0  0  0  0  0
   -4.9716    1.6999   -0.8714 H   0  0  0  0  0  0  0  0  0  0  0  0
   -6.2109    0.5351    0.9350 H   0  0  0  0  0  0  0  0  0  0  0  0
   -4.9725   -0.7473    2.6594 H   0  0  0  0  0  0  0  0  0  0  0  0
   -2.5092   -0.8750    2.5846 H   0  0  0  0  0  0  0  0  0  0  0  0
    1.7722   -0.8869    0.0999 H   0  0  0  0  0  0  0  0  0  0  0  0
    3.6626   -0.1842   -1.2257 H   0  0  0  0  0  0  0  0  0  0  0  0
    4.6791    1.8649    0.0594 H   0  0  0  0  0  0  0  0  0  0  0  0
    2.9950    2.3715    0.3651 H   0  0  0  0  0  0  0  0  0  0  0  0
    4.0339    0.4350    3.1253 H   0  0  0  0  0  0  0  0  0  0  0  0
    3.1209    2.4686   -2.3342 H   0  0  0  0  0  0  0  0  0  0  0  0
    3.3836    1.1195   -3.1596 H   0  0  0  0  0  0  0  0  0  0  0  0
  1  2  1  0
  2  3  1  0
  3  4  1  0
  4  5  1  0
  5  6  2  0
  6  7  1  0
  7  8  2  0
  8  9  1  0
  9 10  2  0
  3 11  1  0
 11 12  1  0
 12 13  2  0
 12 14  1  0
 14 15  1  0
 15 16  1  0
 16 17  2  0
 16 18  1  0
 14 19  1  0
 10  5  1  0
  1 20  1  0
  1 21  1  0
  1 22  1  0
  2 23  1  0
  2 24  1  0
  3 25  1  0
  4 26  1  0
  4 27  1  0
  6 28  1  0
  7 29  1  0
  8 30  1  0
  9 31  1  0
 10 32  1  0
 11 33  1  0
 14 34  1  0
 15 35  1  0
 15 36  1  0
 18 37  1  0
 19 38  1  0
 19 39  1  0
M  END
