
     RDKit          3D

 39 39  0  0  0  0  0  0  0  0999 V2000
    3.0880   -2.6807   -0.7272 N   0  0  0  0  0  0  0  0  0  0  0  0
    2.5113   -1.3223   -0.5593 C   0  0  0  0  0  0  0  0  0  0  0  0
    1.4099   -1.3863    0.5288 C   0  0  0  0  0  0  0  0  0  0  0  0
    1.3989   -2.2713    1.3820 O   0  0  0  0  0  0  0  0  0  0  0  0
    0.4786   -0.3773    0.4501 N   0  0  0  0  0  0  0  0  0  0  0  0
   -0.6597   -0.1805    1.3660 C   0  0  0  0  0  0  0  0  0  0  0  0
   -1.4898    1.0708    0.9259 C   0  0  0  0  0  0  0  0  0  0  0  0
   -2.0924    1.0341   -0.4632 C   0  0  0  0  0  0  0  0  0  0  0  0
   -1.4107    1.5924   -1.5540 C   0  0  0  0  0  0  0  0  0  0  0  0
   -1.9664    1.5555   -2.8342 C   0  0  0  0  0  0  0  0  0  0  0  0
   -3.2125    0.9674   -3.0380 C   0  0  0  0  0  0  0  0  0  0  0  0
   -3.9061    0.4206   -1.9611 C   0  0  0  0  0  0  0  0  0  0  0  0
   -3.3515    0.4567   -0.6804 C   0  0  0  0  0  0  0  0  0  0  0  0
   -1.5556   -1.4321    1.4082 C   0  0  0  0  0  0  0  0  0  0  0  0
   -0.1343    0.1043    2.7885 C   0  0  0  0  0  0  0  0  0  0  0  0
    3.6118   -0.3484   -0.1389 C   0  0  0  0  0  0  0  0  0  0  0  0
    3.2059    1.0770   -0.3863 C   0  0  0  0  0  0  0  0  0  0  0  0
    2.1249    1.4776   -0.7879 O   0  0  0  0  0  0  0  0  0  0  0  0
    4.1954    1.9431   -0.0956 O   0  0  0  0  0  0  0  0  0  0  0  0
    2.3292   -3.3058   -1.0103 H   0  0  0  0  0  0  0  0  0  0  0  0
    3.3271   -3.0229    0.2104 H   0  0  0  0  0  0  0  0  0  0  0  0
    2.0567   -1.0335   -1.5139 H   0  0  0  0  0  0  0  0  0  0  0  0
    0.6544    0.3588   -0.2318 H   0  0  0  0  0  0  0  0  0  0  0  0
   -2.3019    1.2463    1.6455 H   0  0  0  0  0  0  0  0  0  0  0  0
   -0.8534    1.9651    0.9922 H   0  0  0  0  0  0  0  0  0  0  0  0
   -0.4424    2.0690   -1.4173 H   0  0  0  0  0  0  0  0  0  0  0  0
   -1.4267    1.9892   -3.6720 H   0  0  0  0  0  0  0  0  0  0  0  0
   -3.6446    0.9392   -4.0347 H   0  0  0  0  0  0  0  0  0  0  0  0
   -4.8808   -0.0341   -2.1174 H   0  0  0  0  0  0  0  0  0  0  0  0
   -3.9117    0.0283    0.1476 H   0  0  0  0  0  0  0  0  0  0  0  0
   -2.4751   -1.2411    1.9729 H   0  0  0  0  0  0  0  0  0  0  0  0
   -1.0547   -2.2766    1.8928 H   0  0  0  0  0  0  0  0  0  0  0  0
   -1.8312   -1.7638    0.4015 H   0  0  0  0  0  0  0  0  0  0  0  0
   -0.9579    0.3172    3.4793 H   0  0  0  0  0  0  0  0  0  0  0  0
    0.4234   -0.7443    3.1979 H   0  0  0  0  0  0  0  0  0  0  0  0
    0.5414    0.9675    2.7917 H   0  0  0  0  0  0  0  0  0  0  0  0
    3.8541   -0.4614    0.9241 H   0  0  0  0  0  0  0  0  0  0  0  0
    4.5168   -0.5286   -0.7320 H   0  0  0  0  0  0  0  0  0  0  0  0
    3.8314    2.8309   -0.2943 H   0  0  0  0  0  0  0  0  0  0  0  0
  1  2  1  0
  2  3  1  0
  3  4  2  0
  3  5  1  0
  5  6  1  0
  6  7  1  0
  7  8  1  0
  8  9  2  0
  9 10  1  0
 10 11  2  0
 11 12  1  0
 12 13  2  0
  6 14  1  0
  6 15  1  0
  2 16  1  0
 16 17  1  0
 17 18  2  0
 17 19  1  0
 13  8  1  0
  1 20  1  0
  1 21  1  0
  2 22  1  0
  5 23  1  0
  7 24  1  0
  7 25  1  0
  9 26  1  0
 10 27  1  0
 11 28  1  0
 12 29  1  0
 13 30  1  0
 14 31  1  0
 14 32  1  0
 14 33  1  0
 15 34  1  0
 15 35  1  0
 15 36  1  0
 16 37  1  0
 16 38  1  0
 19 39  1  0
M  END
