
     RDKit          3D

 44 43  0  0  0  0  0  0  0  0999 V2000
   -5.2403   -2.1867    0.1738 C   0  0  0  0  0  0  0  0  0  0  0  0
   -5.1711   -0.7436   -0.3011 C   0  0  0  0  0  0  0  0  0  0  0  0
   -4.0951    0.0826    0.4071 C   0  0  0  0  0  0  0  0  0  0  0  0
   -2.6700   -0.3890    0.1033 C   0  0  0  0  0  0  0  0  0  0  0  0
   -1.6324    0.5342    0.7540 C   0  0  0  0  0  0  0  0  0  0  0  0
   -0.1749    0.1769    0.3835 C   0  0  0  0  0  0  0  0  0  0  0  0
    0.8011    1.3005    0.8398 C   0  0  0  0  0  0  0  0  0  0  0  0
    2.1138    1.1437    0.2198 N   0  0  0  0  0  0  0  0  0  0  0  0
    2.3633    1.5239   -1.0798 C   0  0  0  0  0  0  0  0  0  0  0  0
    1.5324    2.0902   -1.7888 O   0  0  0  0  0  0  0  0  0  0  0  0
    3.7860    1.1885   -1.5918 C   0  0  0  0  0  0  0  0  0  0  0  0
    3.8659   -0.2760   -2.0229 C   0  0  0  0  0  0  0  0  0  0  0  0
    4.0536   -1.1821   -0.8396 C   0  0  0  0  0  0  0  0  0  0  0  0
    4.0065   -0.8700    0.3398 O   0  0  0  0  0  0  0  0  0  0  0  0
    4.2678   -2.4598   -1.2056 O   0  0  0  0  0  0  0  0  0  0  0  0
    4.0864    2.0636   -2.7541 N   0  0  0  0  0  0  0  0  0  0  0  0
    0.9680    1.4099    2.3555 C   0  0  0  0  0  0  0  0  0  0  0  0
    0.2206   -1.2024    0.9257 C   0  0  0  0  0  0  0  0  0  0  0  0
   -5.3727   -2.2377    1.2591 H   0  0  0  0  0  0  0  0  0  0  0  0
   -4.3353   -2.7408   -0.0918 H   0  0  0  0  0  0  0  0  0  0  0  0
   -6.0888   -2.6956   -0.2951 H   0  0  0  0  0  0  0  0  0  0  0  0
   -5.0045   -0.7235   -1.3844 H   0  0  0  0  0  0  0  0  0  0  0  0
   -6.1445   -0.2716   -0.1216 H   0  0  0  0  0  0  0  0  0  0  0  0
   -4.2030    1.1271    0.0896 H   0  0  0  0  0  0  0  0  0  0  0  0
   -4.2687    0.0620    1.4899 H   0  0  0  0  0  0  0  0  0  0  0  0
   -2.5376   -1.4098    0.4747 H   0  0  0  0  0  0  0  0  0  0  0  0
   -2.5145   -0.4098   -0.9818 H   0  0  0  0  0  0  0  0  0  0  0  0
   -1.8359    1.5648    0.4364 H   0  0  0  0  0  0  0  0  0  0  0  0
   -1.7640    0.5057    1.8422 H   0  0  0  0  0  0  0  0  0  0  0  0
   -0.1217    0.1174   -0.7122 H   0  0  0  0  0  0  0  0  0  0  0  0
    0.4024    2.2583    0.4807 H   0  0  0  0  0  0  0  0  0  0  0  0
    2.7849    0.5225    0.6726 H   0  0  0  0  0  0  0  0  0  0  0  0
    4.5117    1.4208   -0.8040 H   0  0  0  0  0  0  0  0  0  0  0  0
    4.7331   -0.4254   -2.6781 H   0  0  0  0  0  0  0  0  0  0  0  0
    2.9592   -0.5832   -2.5564 H   0  0  0  0  0  0  0  0  0  0  0  0
    4.3747   -2.9555   -0.3670 H   0  0  0  0  0  0  0  0  0  0  0  0
    3.2957    1.9842   -3.4033 H   0  0  0  0  0  0  0  0  0  0  0  0
    4.0210    3.0337   -2.4357 H   0  0  0  0  0  0  0  0  0  0  0  0
    1.6202    2.2548    2.6051 H   0  0  0  0  0  0  0  0  0  0  0  0
    0.0100    1.5746    2.8566 H   0  0  0  0  0  0  0  0  0  0  0  0
    1.4325    0.5136    2.7795 H   0  0  0  0  0  0  0  0  0  0  0  0
    0.0399   -1.2793    2.0027 H   0  0  0  0  0  0  0  0  0  0  0  0
   -0.3523   -1.9954    0.4350 H   0  0  0  0  0  0  0  0  0  0  0  0
    1.2770   -1.4164    0.7406 H   0  0  0  0  0  0  0  0  0  0  0  0
  1  2  1  0
  2  3  1  0
  3  4  1  0
  4  5  1  0
  5  6  1  0
  6  7  1  0
  7  8  1  0
  8  9  1  0
  9 10  2  0
  9 11  1  0
 11 12  1  0
 12 13  1  0
 13 14  2  0
 13 15  1  0
 11 16  1  0
  7 17  1  0
  6 18  1  0
  1 19  1  0
  1 20  1  0
  1 21  1  0
  2 22  1  0
  2 23  1  0
  3 24  1  0
  3 25  1  0
  4 26  1  0
  4 27  1  0
  5 28  1  0
  5 29  1  0
  6 30  1  0
  7 31  1  0
  8 32  1  0
 11 33  1  0
 12 34  1  0
 12 35  1  0
 15 36  1  0
 16 37  1  0
 16 38  1  0
 17 39  1  0
 17 40  1  0
 17 41  1  0
 18 42  1  0
 18 43  1  0
 18 44  1  0
M  END
