
     RDKit          3D

 45 45  0  0  0  0  0  0  0  0999 V2000
   -0.4783    3.0429   -1.9351 C   0  0  0  0  0  0  0  0  0  0  0  0
   -0.5328    2.1107   -0.8554 O   0  0  0  0  0  0  0  0  0  0  0  0
    0.4614    1.1796   -0.8734 C   0  0  0  0  0  0  0  0  0  0  0  0
    1.3278    1.0898   -1.7378 O   0  0  0  0  0  0  0  0  0  0  0  0
    0.3331    0.2263    0.3219 C   0  0  0  0  0  0  0  0  0  0  0  0
    1.6910   -0.1755    0.7071 N   0  0  0  0  0  0  0  0  0  0  0  0
    2.4459    0.6207    1.5375 C   0  0  0  0  0  0  0  0  0  0  0  0
    1.9779    1.5800    2.1484 O   0  0  0  0  0  0  0  0  0  0  0  0
    3.9382    0.2172    1.6420 C   0  0  0  0  0  0  0  0  0  0  0  0
    4.7087    0.7538    0.4343 C   0  0  0  0  0  0  0  0  0  0  0  0
    4.8382   -0.2459   -0.6811 C   0  0  0  0  0  0  0  0  0  0  0  0
    5.7907   -0.3479   -1.4372 O   0  0  0  0  0  0  0  0  0  0  0  0
    3.7538   -1.0223   -0.8716 O   0  0  0  0  0  0  0  0  0  0  0  0
    4.4866    0.8009    2.8927 N   0  0  0  0  0  0  0  0  0  0  0  0
   -0.4778   -1.0197   -0.0569 C   0  0  0  0  0  0  0  0  0  0  0  0
   -1.9655   -0.7738   -0.3851 C   0  0  0  0  0  0  0  0  0  0  0  0
   -2.6163   -2.0945   -0.8367 C   0  0  0  0  0  0  0  0  0  0  0  0
   -4.1013   -1.9244   -1.1456 C   0  0  0  0  0  0  0  0  0  0  0  0
   -4.8542   -1.3308    0.0392 C   0  0  0  0  0  0  0  0  0  0  0  0
   -4.2265   -0.0191    0.4953 C   0  0  0  0  0  0  0  0  0  0  0  0
   -2.7382   -0.1770    0.8024 C   0  0  0  0  0  0  0  0  0  0  0  0
    0.4689    3.5913   -1.9231 H   0  0  0  0  0  0  0  0  0  0  0  0
   -1.2942    3.7594   -1.8059 H   0  0  0  0  0  0  0  0  0  0  0  0
   -0.6175    2.5276   -2.8904 H   0  0  0  0  0  0  0  0  0  0  0  0
   -0.1112    0.7598    1.1676 H   0  0  0  0  0  0  0  0  0  0  0  0
    2.2199   -0.6872   -0.0002 H   0  0  0  0  0  0  0  0  0  0  0  0
    4.0093   -0.8731    1.7257 H   0  0  0  0  0  0  0  0  0  0  0  0
    5.7374    0.9973    0.7305 H   0  0  0  0  0  0  0  0  0  0  0  0
    4.2537    1.6640    0.0271 H   0  0  0  0  0  0  0  0  0  0  0  0
    3.9949   -1.5247   -1.6836 H   0  0  0  0  0  0  0  0  0  0  0  0
    3.9313    0.4450    3.6744 H   0  0  0  0  0  0  0  0  0  0  0  0
    4.2616    1.8017    2.8863 H   0  0  0  0  0  0  0  0  0  0  0  0
   -0.4103   -1.7468    0.7641 H   0  0  0  0  0  0  0  0  0  0  0  0
   -0.0042   -1.5015   -0.9238 H   0  0  0  0  0  0  0  0  0  0  0  0
   -2.0293   -0.0725   -1.2269 H   0  0  0  0  0  0  0  0  0  0  0  0
   -2.1065   -2.4751   -1.7298 H   0  0  0  0  0  0  0  0  0  0  0  0
   -2.4966   -2.8550   -0.0544 H   0  0  0  0  0  0  0  0  0  0  0  0
   -4.5361   -2.8950   -1.4096 H   0  0  0  0  0  0  0  0  0  0  0  0
   -4.2203   -1.2723   -2.0196 H   0  0  0  0  0  0  0  0  0  0  0  0
   -5.9018   -1.1635   -0.2350 H   0  0  0  0  0  0  0  0  0  0  0  0
   -4.8511   -2.0465    0.8705 H   0  0  0  0  0  0  0  0  0  0  0  0
   -4.3575    0.7396   -0.2862 H   0  0  0  0  0  0  0  0  0  0  0  0
   -4.7483    0.3483    1.3863 H   0  0  0  0  0  0  0  0  0  0  0  0
   -2.3375    0.8071    1.0668 H   0  0  0  0  0  0  0  0  0  0  0  0
   -2.6170   -0.8189    1.6842 H   0  0  0  0  0  0  0  0  0  0  0  0
  1  2  1  0
  2  3  1  0
  3  4  2  0
  3  5  1  0
  5  6  1  0
  6  7  1  0
  7  8  2  0
  7  9  1  0
  9 10  1  0
 10 11  1  0
 11 12  2  0
 11 13  1  0
  9 14  1  0
  5 15  1  0
 15 16  1  0
 16 17  1  0
 17 18  1  0
 18 19  1  0
 19 20  1  0
 20 21  1  0
 21 16  1  0
  1 22  1  0
  1 23  1  0
  1 24  1  0
  5 25  1  0
  6 26  1  0
  9 27  1  0
 10 28  1  0
 10 29  1  0
 13 30  1  0
 14 31  1  0
 14 32  1  0
 15 33  1  0
 15 34  1  0
 16 35  1  0
 17 36  1  0
 17 37  1  0
 18 38  1  0
 18 39  1  0
 19 40  1  0
 19 41  1  0
 20 42  1  0
 20 43  1  0
 21 44  1  0
 21 45  1  0
M  END
