
     RDKit          3D

 38 37  0  0  0  0  0  0  0  0999 V2000
   -3.2747    0.3796   -2.0859 C   0  0  0  0  0  0  0  0  0  0  0  0
   -2.1278   -0.6109   -1.9601 C   0  0  0  0  0  0  0  0  0  0  0  0
   -2.1012   -1.3478   -0.6191 C   0  0  0  0  0  0  0  0  0  0  0  0
   -1.9810   -0.4590    0.6256 C   0  0  0  0  0  0  0  0  0  0  0  0
   -0.7525    0.4563    0.6391 C   0  0  0  0  0  0  0  0  0  0  0  0
   -0.7471    1.2848    1.9323 C   0  0  0  0  0  0  0  0  0  0  0  0
   -0.0643    1.0343    2.9204 O   0  0  0  0  0  0  0  0  0  0  0  0
   -1.6358    2.3157    1.8377 O   0  0  0  0  0  0  0  0  0  0  0  0
   -1.6905    3.1440    2.9992 C   0  0  0  0  0  0  0  0  0  0  0  0
    0.4807   -0.3218    0.5843 N   0  0  0  0  0  0  0  0  0  0  0  0
    1.6433    0.2400    0.0990 C   0  0  0  0  0  0  0  0  0  0  0  0
    1.6851    1.2940   -0.5259 O   0  0  0  0  0  0  0  0  0  0  0  0
    2.8932   -0.6158    0.3813 C   0  0  0  0  0  0  0  0  0  0  0  0
    3.0197   -1.7065   -0.6754 C   0  0  0  0  0  0  0  0  0  0  0  0
    3.2171   -1.1157   -2.0413 C   0  0  0  0  0  0  0  0  0  0  0  0
    2.5326   -1.3403   -3.0252 O   0  0  0  0  0  0  0  0  0  0  0  0
    4.2990   -0.3199   -2.1221 O   0  0  0  0  0  0  0  0  0  0  0  0
    2.7578   -1.2313    1.7321 N   0  0  0  0  0  0  0  0  0  0  0  0
   -3.1659    1.2108   -1.3831 H   0  0  0  0  0  0  0  0  0  0  0  0
   -3.2978    0.8010   -3.0961 H   0  0  0  0  0  0  0  0  0  0  0  0
   -4.2369   -0.1080   -1.9003 H   0  0  0  0  0  0  0  0  0  0  0  0
   -2.2215   -1.3557   -2.7598 H   0  0  0  0  0  0  0  0  0  0  0  0
   -1.1769   -0.0946   -2.1316 H   0  0  0  0  0  0  0  0  0  0  0  0
   -1.2713   -2.0650   -0.6335 H   0  0  0  0  0  0  0  0  0  0  0  0
   -3.0162   -1.9464   -0.5258 H   0  0  0  0  0  0  0  0  0  0  0  0
   -2.8919    0.1430    0.7315 H   0  0  0  0  0  0  0  0  0  0  0  0
   -1.9572   -1.1134    1.5077 H   0  0  0  0  0  0  0  0  0  0  0  0
   -0.7639    1.1569   -0.2029 H   0  0  0  0  0  0  0  0  0  0  0  0
   -0.7136    3.5974    3.1944 H   0  0  0  0  0  0  0  0  0  0  0  0
   -2.4117    3.9441    2.8112 H   0  0  0  0  0  0  0  0  0  0  0  0
   -2.0310    2.5669    3.8646 H   0  0  0  0  0  0  0  0  0  0  0  0
    0.6560   -0.9828    1.3413 H   0  0  0  0  0  0  0  0  0  0  0  0
    3.7635    0.0497    0.3944 H   0  0  0  0  0  0  0  0  0  0  0  0
    2.1177   -2.3303   -0.7088 H   0  0  0  0  0  0  0  0  0  0  0  0
    3.8674   -2.3703   -0.4690 H   0  0  0  0  0  0  0  0  0  0  0  0
    4.2809    0.0109   -3.0458 H   0  0  0  0  0  0  0  0  0  0  0  0
    3.6264   -1.7193    1.9553 H   0  0  0  0  0  0  0  0  0  0  0  0
    2.6904   -0.4745    2.4202 H   0  0  0  0  0  0  0  0  0  0  0  0
  1  2  1  0
  2  3  1  0
  3  4  1  0
  4  5  1  0
  5  6  1  0
  6  7  2  0
  6  8  1  0
  8  9  1  0
  5 10  1  0
 10 11  1  0
 11 12  2  0
 11 13  1  0
 13 14  1  0
 14 15  1  0
 15 16  2  0
 15 17  1  0
 13 18  1  0
  1 19  1  0
  1 20  1  0
  1 21  1  0
  2 22  1  0
  2 23  1  0
  3 24  1  0
  3 25  1  0
  4 26  1  0
  4 27  1  0
  5 28  1  0
  9 29  1  0
  9 30  1  0
  9 31  1  0
 10 32  1  0
 13 33  1  0
 14 34  1  0
 14 35  1  0
 17 36  1  0
 18 37  1  0
 18 38  1  0
M  END
