
     RDKit          3D

 41 40  0  0  0  0  0  0  0  0999 V2000
   -0.9593    3.4454   -2.4887 C   0  0  0  0  0  0  0  0  0  0  0  0
   -1.1936    2.3817   -1.5658 O   0  0  0  0  0  0  0  0  0  0  0  0
   -0.1422    1.5226   -1.4303 C   0  0  0  0  0  0  0  0  0  0  0  0
    0.9115    1.5987   -2.0540 O   0  0  0  0  0  0  0  0  0  0  0  0
   -0.4813    0.4242   -0.4096 C   0  0  0  0  0  0  0  0  0  0  0  0
    0.7645   -0.1980    0.0379 N   0  0  0  0  0  0  0  0  0  0  0  0
    1.5221    0.3987    1.0212 C   0  0  0  0  0  0  0  0  0  0  0  0
    1.1111    1.3342    1.7060 O   0  0  0  0  0  0  0  0  0  0  0  0
    2.9416   -0.1933    1.1961 C   0  0  0  0  0  0  0  0  0  0  0  0
    3.9043    0.4454    0.1935 C   0  0  0  0  0  0  0  0  0  0  0  0
    3.6925   -0.1024   -1.1894 C   0  0  0  0  0  0  0  0  0  0  0  0
    2.9042   -0.9768   -1.5157 O   0  0  0  0  0  0  0  0  0  0  0  0
    4.4858    0.4915   -2.0999 O   0  0  0  0  0  0  0  0  0  0  0  0
    3.4035    0.0853    2.5790 N   0  0  0  0  0  0  0  0  0  0  0  0
   -1.4080   -0.6070   -1.0625 C   0  0  0  0  0  0  0  0  0  0  0  0
   -1.8295   -1.7627   -0.1441 C   0  0  0  0  0  0  0  0  0  0  0  0
   -2.5385   -1.3570    1.1616 C   0  0  0  0  0  0  0  0  0  0  0  0
   -3.8091   -0.5455    0.9072 C   0  0  0  0  0  0  0  0  0  0  0  0
   -2.8779   -2.6091    1.9752 C   0  0  0  0  0  0  0  0  0  0  0  0
   -0.1029    4.0486   -2.1713 H   0  0  0  0  0  0  0  0  0  0  0  0
   -0.8033    3.0490   -3.4969 H   0  0  0  0  0  0  0  0  0  0  0  0
   -1.8467    4.0843   -2.5018 H   0  0  0  0  0  0  0  0  0  0  0  0
   -0.9597    0.9085    0.4486 H   0  0  0  0  0  0  0  0  0  0  0  0
    1.2801   -0.7253   -0.6692 H   0  0  0  0  0  0  0  0  0  0  0  0
    2.8931   -1.2812    1.0720 H   0  0  0  0  0  0  0  0  0  0  0  0
    4.9415    0.2236    0.4720 H   0  0  0  0  0  0  0  0  0  0  0  0
    3.7672    1.5326    0.1611 H   0  0  0  0  0  0  0  0  0  0  0  0
    4.2126    0.1106   -2.9605 H   0  0  0  0  0  0  0  0  0  0  0  0
    3.2752    1.0895    2.7447 H   0  0  0  0  0  0  0  0  0  0  0  0
    2.7370   -0.3447    3.2243 H   0  0  0  0  0  0  0  0  0  0  0  0
   -0.9079   -1.0391   -1.9401 H   0  0  0  0  0  0  0  0  0  0  0  0
   -2.3028   -0.1076   -1.4535 H   0  0  0  0  0  0  0  0  0  0  0  0
   -0.9420   -2.3595    0.1031 H   0  0  0  0  0  0  0  0  0  0  0  0
   -2.4873   -2.4274   -0.7197 H   0  0  0  0  0  0  0  0  0  0  0  0
   -1.8571   -0.7496    1.7689 H   0  0  0  0  0  0  0  0  0  0  0  0
   -4.3257   -0.3280    1.8483 H   0  0  0  0  0  0  0  0  0  0  0  0
   -4.5041   -1.0895    0.2587 H   0  0  0  0  0  0  0  0  0  0  0  0
   -3.5810    0.4144    0.4341 H   0  0  0  0  0  0  0  0  0  0  0  0
   -1.9731   -3.1835    2.2006 H   0  0  0  0  0  0  0  0  0  0  0  0
   -3.3464   -2.3393    2.9277 H   0  0  0  0  0  0  0  0  0  0  0  0
   -3.5684   -3.2626    1.4312 H   0  0  0  0  0  0  0  0  0  0  0  0
  1  2  1  0
  2  3  1  0
  3  4  2  0
  3  5  1  0
  5  6  1  0
  6  7  1  0
  7  8  2  0
  7  9  1  0
  9 10  1  0
 10 11  1  0
 11 12  2  0
 11 13  1  0
  9 14  1  0
  5 15  1  0
 15 16  1  0
 16 17  1  0
 17 18  1  0
 17 19  1  0
  1 20  1  0
  1 21  1  0
  1 22  1  0
  5 23  1  0
  6 24  1  0
  9 25  1  0
 10 26  1  0
 10 27  1  0
 13 28  1  0
 14 29  1  0
 14 30  1  0
 15 31  1  0
 15 32  1  0
 16 33  1  0
 16 34  1  0
 17 35  1  0
 18 36  1  0
 18 37  1  0
 18 38  1  0
 19 39  1  0
 19 40  1  0
 19 41  1  0
M  END
