
     RDKit          3D

 41 40  0  0  0  0  0  0  0  0999 V2000
   -2.7032    2.0004   -2.7375 C   0  0  0  0  0  0  0  0  0  0  0  0
   -3.6987    1.1570   -1.9567 C   0  0  0  0  0  0  0  0  0  0  0  0
   -3.2162   -0.2711   -1.6912 C   0  0  0  0  0  0  0  0  0  0  0  0
   -1.9087   -0.3958   -0.9007 C   0  0  0  0  0  0  0  0  0  0  0  0
   -1.9862    0.2299    0.4988 C   0  0  0  0  0  0  0  0  0  0  0  0
   -0.7410   -0.0101    1.3680 C   0  0  0  0  0  0  0  0  0  0  0  0
   -0.5683   -1.5135    1.6638 C   0  0  0  0  0  0  0  0  0  0  0  0
   -1.4379   -2.2125    2.1723 O   0  0  0  0  0  0  0  0  0  0  0  0
    0.6541   -1.9747    1.2646 O   0  0  0  0  0  0  0  0  0  0  0  0
    0.8681   -3.3606    1.5315 C   0  0  0  0  0  0  0  0  0  0  0  0
    0.4422    0.6112    0.7684 N   0  0  0  0  0  0  0  0  0  0  0  0
    1.4911    1.0238    1.5600 C   0  0  0  0  0  0  0  0  0  0  0  0
    1.4294    1.0671    2.7875 O   0  0  0  0  0  0  0  0  0  0  0  0
    2.7693    1.4237    0.7838 C   0  0  0  0  0  0  0  0  0  0  0  0
    3.6052    0.1818    0.4698 C   0  0  0  0  0  0  0  0  0  0  0  0
    3.0428   -0.5732   -0.7013 C   0  0  0  0  0  0  0  0  0  0  0  0
    1.9953   -0.3458   -1.2864 O   0  0  0  0  0  0  0  0  0  0  0  0
    3.8276   -1.6034   -1.0687 O   0  0  0  0  0  0  0  0  0  0  0  0
    3.5601    2.3554    1.6260 N   0  0  0  0  0  0  0  0  0  0  0  0
   -1.7956    2.1896   -2.1568 H   0  0  0  0  0  0  0  0  0  0  0  0
   -3.1458    2.9707   -2.9848 H   0  0  0  0  0  0  0  0  0  0  0  0
   -2.4203    1.5088   -3.6736 H   0  0  0  0  0  0  0  0  0  0  0  0
   -4.6331    1.1029   -2.5284 H   0  0  0  0  0  0  0  0  0  0  0  0
   -3.9439    1.6588   -1.0143 H   0  0  0  0  0  0  0  0  0  0  0  0
   -3.0883   -0.7852   -2.6521 H   0  0  0  0  0  0  0  0  0  0  0  0
   -4.0076   -0.8116   -1.1570 H   0  0  0  0  0  0  0  0  0  0  0  0
   -1.0910    0.0534   -1.4741 H   0  0  0  0  0  0  0  0  0  0  0  0
   -1.6736   -1.4633   -0.8137 H   0  0  0  0  0  0  0  0  0  0  0  0
   -2.8672   -0.1693    1.0171 H   0  0  0  0  0  0  0  0  0  0  0  0
   -2.1364    1.3120    0.4042 H   0  0  0  0  0  0  0  0  0  0  0  0
   -0.9023    0.4659    2.3433 H   0  0  0  0  0  0  0  0  0  0  0  0
    0.8049   -3.5594    2.6059 H   0  0  0  0  0  0  0  0  0  0  0  0
    1.8745   -3.6187    1.1905 H   0  0  0  0  0  0  0  0  0  0  0  0
    0.1479   -3.9725    0.9794 H   0  0  0  0  0  0  0  0  0  0  0  0
    0.6859    0.3097   -0.1754 H   0  0  0  0  0  0  0  0  0  0  0  0
    2.4816    1.9587   -0.1286 H   0  0  0  0  0  0  0  0  0  0  0  0
    3.6473   -0.4951    1.3309 H   0  0  0  0  0  0  0  0  0  0  0  0
    4.6257    0.4784    0.1983 H   0  0  0  0  0  0  0  0  0  0  0  0
    3.3725   -2.0149   -1.8329 H   0  0  0  0  0  0  0  0  0  0  0  0
    3.6620    1.9184    2.5488 H   0  0  0  0  0  0  0  0  0  0  0  0
    2.9775    3.1731    1.8209 H   0  0  0  0  0  0  0  0  0  0  0  0
  1  2  1  0
  2  3  1  0
  3  4  1  0
  4  5  1  0
  5  6  1  0
  6  7  1  0
  7  8  2  0
  7  9  1  0
  9 10  1  0
  6 11  1  0
 11 12  1  0
 12 13  2  0
 12 14  1  0
 14 15  1  0
 15 16  1  0
 16 17  2  0
 16 18  1  0
 14 19  1  0
  1 20  1  0
  1 21  1  0
  1 22  1  0
  2 23  1  0
  2 24  1  0
  3 25  1  0
  3 26  1  0
  4 27  1  0
  4 28  1  0
  5 29  1  0
  5 30  1  0
  6 31  1  0
 10 32  1  0
 10 33  1  0
 10 34  1  0
 11 35  1  0
 14 36  1  0
 15 37  1  0
 15 38  1  0
 18 39  1  0
 19 40  1  0
 19 41  1  0
M  END
