
     RDKit          3D

 44 43  0  0  0  0  0  0  0  0999 V2000
    5.0510    1.8518    0.9126 C   0  0  0  0  0  0  0  0  0  0  0  0
    4.0899    0.9685    0.1316 C   0  0  0  0  0  0  0  0  0  0  0  0
    3.2001    1.7972   -0.7956 C   0  0  0  0  0  0  0  0  0  0  0  0
    2.2931    0.9469   -1.6900 C   0  0  0  0  0  0  0  0  0  0  0  0
    1.2398    0.1549   -0.9098 C   0  0  0  0  0  0  0  0  0  0  0  0
    0.2844   -0.5774   -1.8623 C   0  0  0  0  0  0  0  0  0  0  0  0
   -0.7791   -1.4354   -1.1594 C   0  0  0  0  0  0  0  0  0  0  0  0
   -0.1142   -2.5724   -0.3609 C   0  0  0  0  0  0  0  0  0  0  0  0
    0.6368   -3.4053   -0.8564 O   0  0  0  0  0  0  0  0  0  0  0  0
   -0.4267   -2.5083    0.9669 O   0  0  0  0  0  0  0  0  0  0  0  0
    0.1700   -3.5381    1.7554 C   0  0  0  0  0  0  0  0  0  0  0  0
   -1.6752   -0.6023   -0.3527 N   0  0  0  0  0  0  0  0  0  0  0  0
   -2.9984   -0.9434   -0.1858 C   0  0  0  0  0  0  0  0  0  0  0  0
   -3.5391   -1.8441   -0.8258 O   0  0  0  0  0  0  0  0  0  0  0  0
   -3.7602   -0.1143    0.8821 C   0  0  0  0  0  0  0  0  0  0  0  0
   -3.8450    1.3607    0.4870 C   0  0  0  0  0  0  0  0  0  0  0  0
   -2.5941    2.0985    0.8745 C   0  0  0  0  0  0  0  0  0  0  0  0
   -1.5557    1.6128    1.2951 O   0  0  0  0  0  0  0  0  0  0  0  0
   -2.7061    3.4263    0.6833 O   0  0  0  0  0  0  0  0  0  0  0  0
   -5.1337   -0.6656    1.0145 N   0  0  0  0  0  0  0  0  0  0  0  0
    4.5065    2.5726    1.5310 H   0  0  0  0  0  0  0  0  0  0  0  0
    5.7110    2.4065    0.2380 H   0  0  0  0  0  0  0  0  0  0  0  0
    5.6756    1.2414    1.5723 H   0  0  0  0  0  0  0  0  0  0  0  0
    3.4781    0.4039    0.8431 H   0  0  0  0  0  0  0  0  0  0  0  0
    4.6649    0.2421   -0.4541 H   0  0  0  0  0  0  0  0  0  0  0  0
    3.8348    2.4153   -1.4429 H   0  0  0  0  0  0  0  0  0  0  0  0
    2.5883    2.4878   -0.2024 H   0  0  0  0  0  0  0  0  0  0  0  0
    2.9052    0.2606   -2.2877 H   0  0  0  0  0  0  0  0  0  0  0  0
    1.7870    1.6162   -2.3968 H   0  0  0  0  0  0  0  0  0  0  0  0
    0.6776    0.8428   -0.2695 H   0  0  0  0  0  0  0  0  0  0  0  0
    1.7336   -0.5713   -0.2561 H   0  0  0  0  0  0  0  0  0  0  0  0
   -0.2201    0.1623   -2.4973 H   0  0  0  0  0  0  0  0  0  0  0  0
    0.8745   -1.2171   -2.5311 H   0  0  0  0  0  0  0  0  0  0  0  0
   -1.3869   -1.9291   -1.9277 H   0  0  0  0  0  0  0  0  0  0  0  0
    1.2611   -3.4578    1.7268 H   0  0  0  0  0  0  0  0  0  0  0  0
   -0.1568   -4.5243    1.4110 H   0  0  0  0  0  0  0  0  0  0  0  0
   -0.1596   -3.4064    2.7896 H   0  0  0  0  0  0  0  0  0  0  0  0
   -1.2460   -0.0795    0.4109 H   0  0  0  0  0  0  0  0  0  0  0  0
   -3.2548   -0.2513    1.8451 H   0  0  0  0  0  0  0  0  0  0  0  0
   -4.0007    1.4760   -0.5915 H   0  0  0  0  0  0  0  0  0  0  0  0
   -4.6731    1.8441    1.0203 H   0  0  0  0  0  0  0  0  0  0  0  0
   -1.8462    3.8027    0.9654 H   0  0  0  0  0  0  0  0  0  0  0  0
   -5.0422   -1.6600    1.2425 H   0  0  0  0  0  0  0  0  0  0  0  0
   -5.5495   -0.6886    0.0781 H   0  0  0  0  0  0  0  0  0  0  0  0
  1  2  1  0
  2  3  1  0
  3  4  1  0
  4  5  1  0
  5  6  1  0
  6  7  1  0
  7  8  1  0
  8  9  2  0
  8 10  1  0
 10 11  1  0
  7 12  1  0
 12 13  1  0
 13 14  2  0
 13 15  1  0
 15 16  1  0
 16 17  1  0
 17 18  2  0
 17 19  1  0
 15 20  1  0
  1 21  1  0
  1 22  1  0
  1 23  1  0
  2 24  1  0
  2 25  1  0
  3 26  1  0
  3 27  1  0
  4 28  1  0
  4 29  1  0
  5 30  1  0
  5 31  1  0
  6 32  1  0
  6 33  1  0
  7 34  1  0
 11 35  1  0
 11 36  1  0
 11 37  1  0
 12 38  1  0
 15 39  1  0
 16 40  1  0
 16 41  1  0
 19 42  1  0
 20 43  1  0
 20 44  1  0
M  END
