
     RDKit          3D

 46 45  0  0  0  0  0  0  0  0999 V2000
   -0.8946   -4.3300    0.9709 C   0  0  0  0  0  0  0  0  0  0  0  0
   -0.3692   -3.0767    1.4085 O   0  0  0  0  0  0  0  0  0  0  0  0
   -1.0744   -1.9953    0.9680 C   0  0  0  0  0  0  0  0  0  0  0  0
   -2.0605   -2.0483    0.2403 O   0  0  0  0  0  0  0  0  0  0  0  0
   -0.4395   -0.6950    1.4878 C   0  0  0  0  0  0  0  0  0  0  0  0
   -1.3736    0.4162    1.3042 N   0  0  0  0  0  0  0  0  0  0  0  0
   -2.3915    0.6139    2.2131 C   0  0  0  0  0  0  0  0  0  0  0  0
   -2.4309    0.0525    3.3069 O   0  0  0  0  0  0  0  0  0  0  0  0
   -3.4952    1.5947    1.7473 C   0  0  0  0  0  0  0  0  0  0  0  0
   -4.5302    0.8522    0.8994 C   0  0  0  0  0  0  0  0  0  0  0  0
   -4.0067    0.5811   -0.4827 C   0  0  0  0  0  0  0  0  0  0  0  0
   -2.9149    0.9042   -0.9263 O   0  0  0  0  0  0  0  0  0  0  0  0
   -4.8931   -0.0913   -1.2399 O   0  0  0  0  0  0  0  0  0  0  0  0
   -4.1513    2.1732    2.9467 N   0  0  0  0  0  0  0  0  0  0  0  0
    0.9099   -0.4188    0.8113 C   0  0  0  0  0  0  0  0  0  0  0  0
    0.8338   -0.2173   -0.7082 C   0  0  0  0  0  0  0  0  0  0  0  0
    2.2318   -0.0396   -1.3099 C   0  0  0  0  0  0  0  0  0  0  0  0
    2.1608    0.1726   -2.8263 C   0  0  0  0  0  0  0  0  0  0  0  0
    3.4763    0.2337   -3.4674 N   0  0  0  0  0  0  0  0  0  0  0  0
    4.1275    1.4533   -2.9644 O   0  0  0  0  0  0  0  0  0  0  0  0
    5.2922    1.1657   -2.2882 C   0  0  0  0  0  0  0  0  0  0  0  0
    5.7114    0.0374   -2.0550 O   0  0  0  0  0  0  0  0  0  0  0  0
    5.9704    2.4352   -1.8773 C   0  0  0  0  0  0  0  0  0  0  0  0
   -1.9090   -4.4751    1.3551 H   0  0  0  0  0  0  0  0  0  0  0  0
   -0.2556   -5.1226    1.3692 H   0  0  0  0  0  0  0  0  0  0  0  0
   -0.8805   -4.3915   -0.1216 H   0  0  0  0  0  0  0  0  0  0  0  0
   -0.2787   -0.8221    2.5655 H   0  0  0  0  0  0  0  0  0  0  0  0
   -1.6027    0.6497    0.3363 H   0  0  0  0  0  0  0  0  0  0  0  0
   -3.0319    2.4171    1.1898 H   0  0  0  0  0  0  0  0  0  0  0  0
   -5.4351    1.4621    0.7882 H   0  0  0  0  0  0  0  0  0  0  0  0
   -4.7988   -0.1050    1.3619 H   0  0  0  0  0  0  0  0  0  0  0  0
   -4.4331   -0.2539   -2.0897 H   0  0  0  0  0  0  0  0  0  0  0  0
   -3.4329    2.6485    3.4979 H   0  0  0  0  0  0  0  0  0  0  0  0
   -4.4260    1.3898    3.5502 H   0  0  0  0  0  0  0  0  0  0  0  0
    1.5925   -1.2511    1.0237 H   0  0  0  0  0  0  0  0  0  0  0  0
    1.3557    0.4765    1.2634 H   0  0  0  0  0  0  0  0  0  0  0  0
    0.2285    0.6663   -0.9400 H   0  0  0  0  0  0  0  0  0  0  0  0
    0.3467   -1.0787   -1.1790 H   0  0  0  0  0  0  0  0  0  0  0  0
    2.7230    0.8159   -0.8311 H   0  0  0  0  0  0  0  0  0  0  0  0
    2.8367   -0.9280   -1.0884 H   0  0  0  0  0  0  0  0  0  0  0  0
    1.5951    1.0831   -3.0578 H   0  0  0  0  0  0  0  0  0  0  0  0
    1.6114   -0.6603   -3.2800 H   0  0  0  0  0  0  0  0  0  0  0  0
    4.0769   -0.5184   -3.1023 H   0  0  0  0  0  0  0  0  0  0  0  0
    6.8138    2.1988   -1.2190 H   0  0  0  0  0  0  0  0  0  0  0  0
    6.3453    2.9575   -2.7621 H   0  0  0  0  0  0  0  0  0  0  0  0
    5.2702    3.0678   -1.3229 H   0  0  0  0  0  0  0  0  0  0  0  0
  1  2  1  0
  2  3  1  0
  3  4  2  0
  3  5  1  0
  5  6  1  0
  6  7  1  0
  7  8  2  0
  7  9  1  0
  9 10  1  0
 10 11  1  0
 11 12  2  0
 11 13  1  0
  9 14  1  0
  5 15  1  0
 15 16  1  0
 16 17  1  0
 17 18  1  0
 18 19  1  0
 19 20  1  0
 20 21  1  0
 21 22  2  0
 21 23  1  0
  1 24  1  0
  1 25  1  0
  1 26  1  0
  5 27  1  0
  6 28  1  0
  9 29  1  0
 10 30  1  0
 10 31  1  0
 13 32  1  0
 14 33  1  0
 14 34  1  0
 15 35  1  0
 15 36  1  0
 16 37  1  0
 16 38  1  0
 17 39  1  0
 17 40  1  0
 18 41  1  0
 18 42  1  0
 19 43  1  0
 23 44  1  0
 23 45  1  0
 23 46  1  0
M  END
