
     RDKit          3D

 20 21  0  0  0  0  0  0  0  0999 V2000
   -3.1024   -0.5092    0.4736 C   0  0  0  0  0  0  0  0  0  0  0  0
   -1.6931   -0.0618    0.2063 C   0  0  0  0  0  0  0  0  0  0  0  0
   -1.4468    1.2477   -0.2684 C   0  0  0  0  0  0  0  0  0  0  0  0
   -0.1480    1.6831   -0.5587 C   0  0  0  0  0  0  0  0  0  0  0  0
    0.8917    0.7864   -0.3821 C   0  0  0  0  0  0  0  0  0  0  0  0
    0.6451   -0.4972    0.0830 C   0  0  0  0  0  0  0  0  0  0  0  0
   -0.6267   -0.9567    0.3732 C   0  0  0  0  0  0  0  0  0  0  0  0
    2.1257   -1.4029    0.1887 S   0  0  0  0  0  6  0  0  0  0  0  0
    2.4615   -1.5890    1.5789 O   0  0  0  0  0  0  0  0  0  0  0  0
    2.0904   -2.4661   -0.7844 O   0  0  0  0  0  0  0  0  0  0  0  0
    3.0526   -0.1438   -0.4081 N   0  0  0  0  0  0  0  0  0  0  0  0
    2.3249    1.0467   -0.6002 C   0  0  0  0  0  0  0  0  0  0  0  0
    2.8258    2.1279   -0.8320 O   0  0  0  0  0  0  0  0  0  0  0  0
   -3.1260   -1.2867    1.2444 H   0  0  0  0  0  0  0  0  0  0  0  0
   -3.7135    0.3247    0.8344 H   0  0  0  0  0  0  0  0  0  0  0  0
   -3.5483   -0.9063   -0.4434 H   0  0  0  0  0  0  0  0  0  0  0  0
   -2.2787    1.9369   -0.4115 H   0  0  0  0  0  0  0  0  0  0  0  0
    0.0372    2.6933   -0.9131 H   0  0  0  0  0  0  0  0  0  0  0  0
   -0.7858   -1.9752    0.7160 H   0  0  0  0  0  0  0  0  0  0  0  0
    4.0142   -0.0518   -0.0966 H   0  0  0  0  0  0  0  0  0  0  0  0
  1  2  1  0
  2  3  2  0
  3  4  1  0
  4  5  2  0
  5  6  1  0
  6  7  2  0
  6  8  1  0
  8  9  2  0
  8 10  2  0
  8 11  1  0
 11 12  1  0
 12 13  2  0
  7  2  1  0
 12  5  1  0
  1 14  1  0
  1 15  1  0
  1 16  1  0
  3 17  1  0
  4 18  1  0
  7 19  1  0
 11 20  1  0
M  END
