
     RDKit          3D

 43 42  0  0  0  0  0  0  0  0999 V2000
   -0.4797   -4.2907   -0.2253 C   0  0  0  0  0  0  0  0  0  0  0  0
   -0.1094   -3.1253    0.5117 O   0  0  0  0  0  0  0  0  0  0  0  0
   -0.8438   -2.0175    0.2038 C   0  0  0  0  0  0  0  0  0  0  0  0
   -1.7229   -1.9745   -0.6510 O   0  0  0  0  0  0  0  0  0  0  0  0
   -0.3886   -0.8219    1.0563 C   0  0  0  0  0  0  0  0  0  0  0  0
   -1.3909    0.2410    0.9918 N   0  0  0  0  0  0  0  0  0  0  0  0
   -2.5178    0.1771    1.7825 C   0  0  0  0  0  0  0  0  0  0  0  0
   -2.6432   -0.6240    2.7075 O   0  0  0  0  0  0  0  0  0  0  0  0
   -3.6287    1.1882    1.4090 C   0  0  0  0  0  0  0  0  0  0  0  0
   -4.5152    0.6065    0.3065 C   0  0  0  0  0  0  0  0  0  0  0  0
   -3.8230    0.6451   -1.0266 C   0  0  0  0  0  0  0  0  0  0  0  0
   -2.7172    1.1071   -1.2632 O   0  0  0  0  0  0  0  0  0  0  0  0
   -4.5630    0.0854   -2.0016 O   0  0  0  0  0  0  0  0  0  0  0  0
   -4.4472    1.4596    2.6172 N   0  0  0  0  0  0  0  0  0  0  0  0
    0.9987   -0.3202    0.6310 C   0  0  0  0  0  0  0  0  0  0  0  0
    1.0726    0.1970   -0.8140 C   0  0  0  0  0  0  0  0  0  0  0  0
    2.4953    0.5585   -1.2548 C   0  0  0  0  0  0  0  0  0  0  0  0
    3.0265    1.6829   -0.4863 N   0  0  0  0  0  0  0  0  0  0  0  0
    4.3873    1.8929   -1.0092 O   0  0  0  0  0  0  0  0  0  0  0  0
    5.3442    1.5981   -0.0643 C   0  0  0  0  0  0  0  0  0  0  0  0
    5.1130    1.1534    1.0541 O   0  0  0  0  0  0  0  0  0  0  0  0
    6.7076    1.8821   -0.6126 C   0  0  0  0  0  0  0  0  0  0  0  0
   -1.5282   -4.5455   -0.0417 H   0  0  0  0  0  0  0  0  0  0  0  0
   -0.2976   -4.1402   -1.2939 H   0  0  0  0  0  0  0  0  0  0  0  0
    0.1430   -5.1211    0.1187 H   0  0  0  0  0  0  0  0  0  0  0  0
   -0.3381   -1.1687    2.0960 H   0  0  0  0  0  0  0  0  0  0  0  0
   -1.5167    0.6861    0.0810 H   0  0  0  0  0  0  0  0  0  0  0  0
   -3.1659    2.1318    1.0982 H   0  0  0  0  0  0  0  0  0  0  0  0
   -5.4343    1.1970    0.2102 H   0  0  0  0  0  0  0  0  0  0  0  0
   -4.7808   -0.4336    0.5292 H   0  0  0  0  0  0  0  0  0  0  0  0
   -3.9876    0.1011   -2.7945 H   0  0  0  0  0  0  0  0  0  0  0  0
   -3.8272    1.8398    3.3360 H   0  0  0  0  0  0  0  0  0  0  0  0
   -4.7258    0.5513    3.0043 H   0  0  0  0  0  0  0  0  0  0  0  0
    1.2990    0.4802    1.3183 H   0  0  0  0  0  0  0  0  0  0  0  0
    1.7263   -1.1325    0.7531 H   0  0  0  0  0  0  0  0  0  0  0  0
    0.4256    1.0742   -0.9335 H   0  0  0  0  0  0  0  0  0  0  0  0
    0.6945   -0.5693   -1.5004 H   0  0  0  0  0  0  0  0  0  0  0  0
    3.1466   -0.3181   -1.1534 H   0  0  0  0  0  0  0  0  0  0  0  0
    2.4693    0.8302   -2.3166 H   0  0  0  0  0  0  0  0  0  0  0  0
    3.2022    1.3872    0.4831 H   0  0  0  0  0  0  0  0  0  0  0  0
    7.4566    1.6836    0.1591 H   0  0  0  0  0  0  0  0  0  0  0  0
    6.9051    1.2324   -1.4686 H   0  0  0  0  0  0  0  0  0  0  0  0
    6.7794    2.9333   -0.9024 H   0  0  0  0  0  0  0  0  0  0  0  0
  1  2  1  0
  2  3  1  0
  3  4  2  0
  3  5  1  0
  5  6  1  0
  6  7  1  0
  7  8  2  0
  7  9  1  0
  9 10  1  0
 10 11  1  0
 11 12  2  0
 11 13  1  0
  9 14  1  0
  5 15  1  0
 15 16  1  0
 16 17  1  0
 17 18  1  0
 18 19  1  0
 19 20  1  0
 20 21  2  0
 20 22  1  0
  1 23  1  0
  1 24  1  0
  1 25  1  0
  5 26  1  0
  6 27  1  0
  9 28  1  0
 10 29  1  0
 10 30  1  0
 13 31  1  0
 14 32  1  0
 14 33  1  0
 15 34  1  0
 15 35  1  0
 16 36  1  0
 16 37  1  0
 17 38  1  0
 17 39  1  0
 18 40  1  0
 22 41  1  0
 22 42  1  0
 22 43  1  0
M  END
