
     RDKit          3D

 41 40  0  0  0  0  0  0  0  0999 V2000
    0.6152   -2.0785   -3.9725 C   0  0  0  0  0  0  0  0  0  0  0  0
    0.8312   -1.8491   -2.5802 O   0  0  0  0  0  0  0  0  0  0  0  0
   -0.0114   -0.9274   -2.0322 C   0  0  0  0  0  0  0  0  0  0  0  0
   -0.8761   -0.3116   -2.6463 O   0  0  0  0  0  0  0  0  0  0  0  0
    0.3035   -0.7410   -0.5391 C   0  0  0  0  0  0  0  0  0  0  0  0
   -0.8627   -0.1411    0.1149 N   0  0  0  0  0  0  0  0  0  0  0  0
   -1.9114   -0.9326    0.5312 C   0  0  0  0  0  0  0  0  0  0  0  0
   -1.8332   -2.1572    0.6079 O   0  0  0  0  0  0  0  0  0  0  0  0
   -3.2080   -0.1607    0.8854 C   0  0  0  0  0  0  0  0  0  0  0  0
   -4.0344    0.0855   -0.3787 C   0  0  0  0  0  0  0  0  0  0  0  0
   -3.3847    1.1201   -1.2520 C   0  0  0  0  0  0  0  0  0  0  0  0
   -2.4524    1.8463   -0.9421 O   0  0  0  0  0  0  0  0  0  0  0  0
   -3.9278    1.1686   -2.4808 O   0  0  0  0  0  0  0  0  0  0  0  0
   -3.9983   -0.9671    1.8486 N   0  0  0  0  0  0  0  0  0  0  0  0
    1.5301    0.1643   -0.3872 C   0  0  0  0  0  0  0  0  0  0  0  0
    2.0539    0.2553    1.0581 C   0  0  0  0  0  0  0  0  0  0  0  0
    3.0580    1.3895    1.1677 C   0  0  0  0  0  0  0  0  0  0  0  0
    3.7266    1.8234    0.2392 O   0  0  0  0  0  0  0  0  0  0  0  0
    3.1199    1.8384    2.4530 O   0  0  0  0  0  0  0  0  0  0  0  0
    4.0434    2.9099    2.6515 C   0  0  0  0  0  0  0  0  0  0  0  0
    2.7250   -1.0347    1.5212 C   0  0  0  0  0  0  0  0  0  0  0  0
    1.4203   -2.7215   -4.3395 H   0  0  0  0  0  0  0  0  0  0  0  0
    0.6380   -1.1398   -4.5330 H   0  0  0  0  0  0  0  0  0  0  0  0
   -0.3353   -2.5978   -4.1204 H   0  0  0  0  0  0  0  0  0  0  0  0
    0.4745   -1.7349   -0.1121 H   0  0  0  0  0  0  0  0  0  0  0  0
   -1.1137    0.7974   -0.2009 H   0  0  0  0  0  0  0  0  0  0  0  0
   -2.9409    0.7813    1.3777 H   0  0  0  0  0  0  0  0  0  0  0  0
   -4.1347   -0.8416   -0.9553 H   0  0  0  0  0  0  0  0  0  0  0  0
   -5.0312    0.4571   -0.1186 H   0  0  0  0  0  0  0  0  0  0  0  0
   -3.3403    1.7651   -2.9897 H   0  0  0  0  0  0  0  0  0  0  0  0
   -3.4314   -1.1006    2.6903 H   0  0  0  0  0  0  0  0  0  0  0  0
   -4.0753   -1.9147    1.4618 H   0  0  0  0  0  0  0  0  0  0  0  0
    1.2732    1.1737   -0.7405 H   0  0  0  0  0  0  0  0  0  0  0  0
    2.3379   -0.1827   -1.0467 H   0  0  0  0  0  0  0  0  0  0  0  0
    1.2161    0.4936    1.7242 H   0  0  0  0  0  0  0  0  0  0  0  0
    4.0348    3.1722    3.7128 H   0  0  0  0  0  0  0  0  0  0  0  0
    5.0573    2.6005    2.3801 H   0  0  0  0  0  0  0  0  0  0  0  0
    3.7363    3.7881    2.0758 H   0  0  0  0  0  0  0  0  0  0  0  0
    3.1058   -0.9277    2.5439 H   0  0  0  0  0  0  0  0  0  0  0  0
    2.0272   -1.8767    1.5196 H   0  0  0  0  0  0  0  0  0  0  0  0
    3.5750   -1.2912    0.8811 H   0  0  0  0  0  0  0  0  0  0  0  0
  1  2  1  0
  2  3  1  0
  3  4  2  0
  3  5  1  0
  5  6  1  0
  6  7  1  0
  7  8  2  0
  7  9  1  0
  9 10  1  0
 10 11  1  0
 11 12  2  0
 11 13  1  0
  9 14  1  0
  5 15  1  0
 15 16  1  0
 16 17  1  0
 17 18  2  0
 17 19  1  0
 19 20  1  0
 16 21  1  0
  1 22  1  0
  1 23  1  0
  1 24  1  0
  5 25  1  0
  6 26  1  0
  9 27  1  0
 10 28  1  0
 10 29  1  0
 13 30  1  0
 14 31  1  0
 14 32  1  0
 15 33  1  0
 15 34  1  0
 16 35  1  0
 20 36  1  0
 20 37  1  0
 20 38  1  0
 21 39  1  0
 21 40  1  0
 21 41  1  0
M  END
