
     RDKit          3D

 39 38  0  0  0  0  0  0  0  0999 V2000
    3.7593   -3.0071    0.2158 C   0  0  0  0  0  0  0  0  0  0  0  0
    3.5366   -1.5037    0.1584 C   0  0  0  0  0  0  0  0  0  0  0  0
    2.0869   -1.1403    0.4930 C   0  0  0  0  0  0  0  0  0  0  0  0
    1.8513    0.3799    0.4771 C   0  0  0  0  0  0  0  0  0  0  0  0
    0.4041    0.7267    0.8828 C   0  0  0  0  0  0  0  0  0  0  0  0
    0.3622    2.1823    1.3748 C   0  0  0  0  0  0  0  0  0  0  0  0
    0.9965    2.5933    2.3405 O   0  0  0  0  0  0  0  0  0  0  0  0
   -0.4520    2.9613    0.6008 O   0  0  0  0  0  0  0  0  0  0  0  0
   -0.5037    4.3286    1.0089 C   0  0  0  0  0  0  0  0  0  0  0  0
   -0.5225    0.4764   -0.2287 N   0  0  0  0  0  0  0  0  0  0  0  0
   -1.8154    0.0621    0.0100 C   0  0  0  0  0  0  0  0  0  0  0  0
   -2.2120   -0.3503    1.0939 O   0  0  0  0  0  0  0  0  0  0  0  0
   -2.7106    0.1129   -1.2431 C   0  0  0  0  0  0  0  0  0  0  0  0
   -2.4694   -1.1230   -2.1013 C   0  0  0  0  0  0  0  0  0  0  0  0
   -2.8208   -2.3749   -1.3518 C   0  0  0  0  0  0  0  0  0  0  0  0
   -2.0688   -3.3071   -1.1234 O   0  0  0  0  0  0  0  0  0  0  0  0
   -4.1099   -2.4154   -0.9694 O   0  0  0  0  0  0  0  0  0  0  0  0
   -2.3800    1.3414   -2.0192 N   0  0  0  0  0  0  0  0  0  0  0  0
    2.1296    0.8902   -0.8360 O   0  0  0  0  0  0  0  0  0  0  0  0
    3.1192   -3.5259   -0.5047 H   0  0  0  0  0  0  0  0  0  0  0  0
    3.5405   -3.3984    1.2145 H   0  0  0  0  0  0  0  0  0  0  0  0
    4.8009   -3.2454   -0.0215 H   0  0  0  0  0  0  0  0  0  0  0  0
    3.7966   -1.1440   -0.8436 H   0  0  0  0  0  0  0  0  0  0  0  0
    4.2149   -1.0133    0.8662 H   0  0  0  0  0  0  0  0  0  0  0  0
    1.4284   -1.6275   -0.2372 H   0  0  0  0  0  0  0  0  0  0  0  0
    1.8325   -1.5392    1.4825 H   0  0  0  0  0  0  0  0  0  0  0  0
    2.5642    0.8532    1.1621 H   0  0  0  0  0  0  0  0  0  0  0  0
    0.0945    0.1209    1.7429 H   0  0  0  0  0  0  0  0  0  0  0  0
    0.4837    4.7922    0.9184 H   0  0  0  0  0  0  0  0  0  0  0  0
   -1.1954    4.8538    0.3439 H   0  0  0  0  0  0  0  0  0  0  0  0
   -0.8807    4.4111    2.0333 H   0  0  0  0  0  0  0  0  0  0  0  0
   -0.4576    1.1128   -1.0230 H   0  0  0  0  0  0  0  0  0  0  0  0
   -3.7530    0.1851   -0.9130 H   0  0  0  0  0  0  0  0  0  0  0  0
   -3.0668   -1.0984   -3.0203 H   0  0  0  0  0  0  0  0  0  0  0  0
   -1.4170   -1.1973   -2.4021 H   0  0  0  0  0  0  0  0  0  0  0  0
   -4.1848   -3.2572   -0.4700 H   0  0  0  0  0  0  0  0  0  0  0  0
   -2.6074    2.1527   -1.4376 H   0  0  0  0  0  0  0  0  0  0  0  0
   -3.0141    1.4004   -2.8181 H   0  0  0  0  0  0  0  0  0  0  0  0
    1.6400    0.3310   -1.4662 H   0  0  0  0  0  0  0  0  0  0  0  0
  1  2  1  0
  2  3  1  0
  3  4  1  0
  4  5  1  0
  5  6  1  0
  6  7  2  0
  6  8  1  0
  8  9  1  0
  5 10  1  0
 10 11  1  0
 11 12  2  0
 11 13  1  0
 13 14  1  0
 14 15  1  0
 15 16  2  0
 15 17  1  0
 13 18  1  0
  4 19  1  0
  1 20  1  0
  1 21  1  0
  1 22  1  0
  2 23  1  0
  2 24  1  0
  3 25  1  0
  3 26  1  0
  4 27  1  0
  5 28  1  0
  9 29  1  0
  9 30  1  0
  9 31  1  0
 10 32  1  0
 13 33  1  0
 14 34  1  0
 14 35  1  0
 17 36  1  0
 18 37  1  0
 18 38  1  0
 19 39  1  0
M  END
