
     RDKit          3D

 32 31  0  0  0  0  0  0  0  0999 V2000
    4.9124    1.9586   -0.7629 C   0  0  0  0  0  0  0  0  0  0  0  0
    4.1953    0.7530   -1.0312 O   0  0  0  0  0  0  0  0  0  0  0  0
    3.6791    0.1579    0.0778 C   0  0  0  0  0  0  0  0  0  0  0  0
    3.7734    0.5838    1.2207 O   0  0  0  0  0  0  0  0  0  0  0  0
    2.9237   -1.0906   -0.2954 C   0  0  0  0  0  0  0  0  0  0  0  0
    1.4718   -0.7829   -0.6379 C   0  0  0  0  0  0  0  0  0  0  0  0
    0.6630   -0.3551    0.5870 C   0  0  0  0  0  0  0  0  0  0  0  0
   -0.7254   -0.1242    0.2482 N   0  0  0  0  0  0  0  0  0  0  0  0
   -1.6411   -1.1455    0.1512 C   0  0  0  0  0  0  0  0  0  0  0  0
   -1.3518   -2.3250    0.3490 O   0  0  0  0  0  0  0  0  0  0  0  0
   -3.0745   -0.7009   -0.2361 C   0  0  0  0  0  0  0  0  0  0  0  0
   -3.7686   -0.0207    0.9443 C   0  0  0  0  0  0  0  0  0  0  0  0
   -3.3557    1.4193    1.0643 C   0  0  0  0  0  0  0  0  0  0  0  0
   -2.4867    1.9911    0.4249 O   0  0  0  0  0  0  0  0  0  0  0  0
   -4.0527    2.0704    2.0146 O   0  0  0  0  0  0  0  0  0  0  0  0
   -3.8491   -1.9035   -0.6380 N   0  0  0  0  0  0  0  0  0  0  0  0
    5.7643    1.7603   -0.1050 H   0  0  0  0  0  0  0  0  0  0  0  0
    5.2914    2.3459   -1.7127 H   0  0  0  0  0  0  0  0  0  0  0  0
    4.2481    2.7090   -0.3230 H   0  0  0  0  0  0  0  0  0  0  0  0
    3.4252   -1.5608   -1.1496 H   0  0  0  0  0  0  0  0  0  0  0  0
    2.9980   -1.8039    0.5332 H   0  0  0  0  0  0  0  0  0  0  0  0
    1.0200   -1.6794   -1.0799 H   0  0  0  0  0  0  0  0  0  0  0  0
    1.4193    0.0020   -1.4029 H   0  0  0  0  0  0  0  0  0  0  0  0
    0.7124   -1.1237    1.3663 H   0  0  0  0  0  0  0  0  0  0  0  0
    1.0445    0.5819    1.0040 H   0  0  0  0  0  0  0  0  0  0  0  0
   -1.0263    0.8318    0.0568 H   0  0  0  0  0  0  0  0  0  0  0  0
   -3.0121   -0.0401   -1.1083 H   0  0  0  0  0  0  0  0  0  0  0  0
   -3.5383   -0.5298    1.8870 H   0  0  0  0  0  0  0  0  0  0  0  0
   -4.8551   -0.0261    0.7924 H   0  0  0  0  0  0  0  0  0  0  0  0
   -3.7035    2.9861    2.0103 H   0  0  0  0  0  0  0  0  0  0  0  0
   -3.7507   -2.5933    0.1148 H   0  0  0  0  0  0  0  0  0  0  0  0
   -3.3502   -2.3459   -1.4144 H   0  0  0  0  0  0  0  0  0  0  0  0
  1  2  1  0
  2  3  1  0
  3  4  2  0
  3  5  1  0
  5  6  1  0
  6  7  1  0
  7  8  1  0
  8  9  1  0
  9 10  2  0
  9 11  1  0
 11 12  1  0
 12 13  1  0
 13 14  2  0
 13 15  1  0
 11 16  1  0
  1 17  1  0
  1 18  1  0
  1 19  1  0
  5 20  1  0
  5 21  1  0
  6 22  1  0
  6 23  1  0
  7 24  1  0
  7 25  1  0
  8 26  1  0
 11 27  1  0
 12 28  1  0
 12 29  1  0
 15 30  1  0
 16 31  1  0
 16 32  1  0
M  END
