
     RDKit          3D

 36 35  0  0  0  0  0  0  0  0999 V2000
    1.2666    3.5352   -0.4101 C   0  0  0  0  0  0  0  0  0  0  0  0
    0.7757    2.2187   -0.1559 O   0  0  0  0  0  0  0  0  0  0  0  0
   -0.5486    2.1684    0.1708 C   0  0  0  0  0  0  0  0  0  0  0  0
   -1.2677    3.1552    0.2885 O   0  0  0  0  0  0  0  0  0  0  0  0
   -1.0389    0.7299    0.4117 C   0  0  0  0  0  0  0  0  0  0  0  0
    0.0104   -0.2689    0.1887 N   0  0  0  0  0  0  0  0  0  0  0  0
    0.3021   -0.7149   -1.0781 C   0  0  0  0  0  0  0  0  0  0  0  0
   -0.3772   -0.4210   -2.0606 O   0  0  0  0  0  0  0  0  0  0  0  0
    1.5612   -1.6081   -1.1782 C   0  0  0  0  0  0  0  0  0  0  0  0
    2.8155   -0.7389   -1.2792 C   0  0  0  0  0  0  0  0  0  0  0  0
    3.2143   -0.1948    0.0636 C   0  0  0  0  0  0  0  0  0  0  0  0
    2.5903   -0.2865    1.1092 O   0  0  0  0  0  0  0  0  0  0  0  0
    4.3863    0.4664    0.0176 O   0  0  0  0  0  0  0  0  0  0  0  0
    1.4431   -2.4545   -2.3916 N   0  0  0  0  0  0  0  0  0  0  0  0
   -1.5857    0.6703    1.8442 C   0  0  0  0  0  0  0  0  0  0  0  0
   -2.2227   -0.9677    2.3719 S   0  0  0  0  0  0  0  0  0  0  0  0
   -3.6740   -1.1209    1.2808 C   0  0  0  0  0  0  0  0  0  0  0  0
   -3.3997   -2.0807    0.1374 C   0  0  0  0  0  0  0  0  0  0  0  0
    2.3222    3.4549   -0.6840 H   0  0  0  0  0  0  0  0  0  0  0  0
    1.1880    4.1528    0.4899 H   0  0  0  0  0  0  0  0  0  0  0  0
    0.7262    3.9925   -1.2448 H   0  0  0  0  0  0  0  0  0  0  0  0
   -1.8381    0.5581   -0.3182 H   0  0  0  0  0  0  0  0  0  0  0  0
    0.7490   -0.3340    0.8905 H   0  0  0  0  0  0  0  0  0  0  0  0
    1.5994   -2.2728   -0.3076 H   0  0  0  0  0  0  0  0  0  0  0  0
    3.6572   -1.3412   -1.6428 H   0  0  0  0  0  0  0  0  0  0  0  0
    2.6591    0.1041   -1.9621 H   0  0  0  0  0  0  0  0  0  0  0  0
    4.5498    0.7640    0.9369 H   0  0  0  0  0  0  0  0  0  0  0  0
    0.6035   -3.0298   -2.2914 H   0  0  0  0  0  0  0  0  0  0  0  0
    1.2088   -1.8339   -3.1742 H   0  0  0  0  0  0  0  0  0  0  0  0
   -0.7878    0.9299    2.5507 H   0  0  0  0  0  0  0  0  0  0  0  0
   -2.3813    1.4091    1.9935 H   0  0  0  0  0  0  0  0  0  0  0  0
   -3.9799   -0.1408    0.9025 H   0  0  0  0  0  0  0  0  0  0  0  0
   -4.5009   -1.5088    1.8845 H   0  0  0  0  0  0  0  0  0  0  0  0
   -2.5908   -1.7296   -0.5088 H   0  0  0  0  0  0  0  0  0  0  0  0
   -4.2957   -2.1826   -0.4840 H   0  0  0  0  0  0  0  0  0  0  0  0
   -3.1396   -3.0789    0.5059 H   0  0  0  0  0  0  0  0  0  0  0  0
  1  2  1  0
  2  3  1  0
  3  4  2  0
  3  5  1  0
  5  6  1  0
  6  7  1  0
  7  8  2  0
  7  9  1  0
  9 10  1  0
 10 11  1  0
 11 12  2  0
 11 13  1  0
  9 14  1  0
  5 15  1  0
 15 16  1  0
 16 17  1  0
 17 18  1  0
  1 19  1  0
  1 20  1  0
  1 21  1  0
  5 22  1  0
  6 23  1  0
  9 24  1  0
 10 25  1  0
 10 26  1  0
 13 27  1  0
 14 28  1  0
 14 29  1  0
 15 30  1  0
 15 31  1  0
 17 32  1  0
 17 33  1  0
 18 34  1  0
 18 35  1  0
 18 36  1  0
M  END
