
     RDKit          3D

 39 38  0  0  0  0  0  0  0  0999 V2000
    4.2796   -3.1617   -0.7712 C   0  0  0  0  0  0  0  0  0  0  0  0
    3.1930   -3.1955    0.2937 C   0  0  0  0  0  0  0  0  0  0  0  0
    2.5354   -1.8269    0.4512 C   0  0  0  0  0  0  0  0  0  0  0  0
    1.2453   -1.9049    1.7356 S   0  0  0  0  0  0  0  0  0  0  0  0
    0.8712   -0.1190    1.9141 C   0  0  0  0  0  0  0  0  0  0  0  0
    0.3685    0.5697    0.6412 C   0  0  0  0  0  0  0  0  0  0  0  0
    0.0192    2.0211    0.9921 C   0  0  0  0  0  0  0  0  0  0  0  0
   -1.1165    2.4466    1.1735 O   0  0  0  0  0  0  0  0  0  0  0  0
    1.1580    2.7645    1.1070 O   0  0  0  0  0  0  0  0  0  0  0  0
    0.9255    4.1402    1.4133 C   0  0  0  0  0  0  0  0  0  0  0  0
   -0.8207   -0.0790    0.0855 N   0  0  0  0  0  0  0  0  0  0  0  0
   -1.1547    0.0931   -1.2371 C   0  0  0  0  0  0  0  0  0  0  0  0
   -0.3973    0.6220   -2.0497 O   0  0  0  0  0  0  0  0  0  0  0  0
   -2.5627   -0.4185   -1.6251 C   0  0  0  0  0  0  0  0  0  0  0  0
   -3.6134    0.6480   -1.3109 C   0  0  0  0  0  0  0  0  0  0  0  0
   -3.8914    0.7235    0.1638 C   0  0  0  0  0  0  0  0  0  0  0  0
   -3.3962    0.0292    1.0381 O   0  0  0  0  0  0  0  0  0  0  0  0
   -4.7816    1.6871    0.4651 O   0  0  0  0  0  0  0  0  0  0  0  0
   -2.5739   -0.7162   -3.0795 N   0  0  0  0  0  0  0  0  0  0  0  0
    3.8681   -2.8716   -1.7432 H   0  0  0  0  0  0  0  0  0  0  0  0
    5.0674   -2.4501   -0.5047 H   0  0  0  0  0  0  0  0  0  0  0  0
    4.7369   -4.1504   -0.8773 H   0  0  0  0  0  0  0  0  0  0  0  0
    2.4466   -3.9477    0.0108 H   0  0  0  0  0  0  0  0  0  0  0  0
    3.6407   -3.5163    1.2423 H   0  0  0  0  0  0  0  0  0  0  0  0
    3.2834   -1.0811    0.7393 H   0  0  0  0  0  0  0  0  0  0  0  0
    2.0805   -1.5231   -0.4966 H   0  0  0  0  0  0  0  0  0  0  0  0
    0.1143   -0.0392    2.7037 H   0  0  0  0  0  0  0  0  0  0  0  0
    1.7697    0.3792    2.2955 H   0  0  0  0  0  0  0  0  0  0  0  0
    1.1441    0.5959   -0.1327 H   0  0  0  0  0  0  0  0  0  0  0  0
    0.3363    4.6145    0.6224 H   0  0  0  0  0  0  0  0  0  0  0  0
    0.4258    4.2376    2.3821 H   0  0  0  0  0  0  0  0  0  0  0  0
    1.8949    4.6427    1.4717 H   0  0  0  0  0  0  0  0  0  0  0  0
   -1.5880   -0.2619    0.7354 H   0  0  0  0  0  0  0  0  0  0  0  0
   -2.7643   -1.3533   -1.0897 H   0  0  0  0  0  0  0  0  0  0  0  0
   -3.2794    1.6351   -1.6515 H   0  0  0  0  0  0  0  0  0  0  0  0
   -4.5608    0.4010   -1.8051 H   0  0  0  0  0  0  0  0  0  0  0  0
   -4.8348    1.6850    1.4436 H   0  0  0  0  0  0  0  0  0  0  0  0
   -2.2049    0.1102   -3.5619 H   0  0  0  0  0  0  0  0  0  0  0  0
   -1.8636   -1.4294   -3.2584 H   0  0  0  0  0  0  0  0  0  0  0  0
  1  2  1  0
  2  3  1  0
  3  4  1  0
  4  5  1  0
  5  6  1  0
  6  7  1  0
  7  8  2  0
  7  9  1  0
  9 10  1  0
  6 11  1  0
 11 12  1  0
 12 13  2  0
 12 14  1  0
 14 15  1  0
 15 16  1  0
 16 17  2  0
 16 18  1  0
 14 19  1  0
  1 20  1  0
  1 21  1  0
  1 22  1  0
  2 23  1  0
  2 24  1  0
  3 25  1  0
  3 26  1  0
  5 27  1  0
  5 28  1  0
  6 29  1  0
 10 30  1  0
 10 31  1  0
 10 32  1  0
 11 33  1  0
 14 34  1  0
 15 35  1  0
 15 36  1  0
 18 37  1  0
 19 38  1  0
 19 39  1  0
M  END
