
     RDKit          3D

 39 38  0  0  0  0  0  0  0  0999 V2000
   -0.4354   -1.5389   -3.1485 C   0  0  0  0  0  0  0  0  0  0  0  0
   -0.0732   -1.2329   -1.8024 O   0  0  0  0  0  0  0  0  0  0  0  0
   -1.1021   -1.3372   -0.9106 C   0  0  0  0  0  0  0  0  0  0  0  0
   -2.2485   -1.6559   -1.2100 O   0  0  0  0  0  0  0  0  0  0  0  0
   -0.6612   -1.0019    0.5247 C   0  0  0  0  0  0  0  0  0  0  0  0
    0.7614   -0.6641    0.6480 N   0  0  0  0  0  0  0  0  0  0  0  0
    1.7118   -1.6551    0.7230 C   0  0  0  0  0  0  0  0  0  0  0  0
    1.4251   -2.8412    0.8814 O   0  0  0  0  0  0  0  0  0  0  0  0
    3.1756   -1.1732    0.5872 C   0  0  0  0  0  0  0  0  0  0  0  0
    3.5537   -1.0592   -0.8904 C   0  0  0  0  0  0  0  0  0  0  0  0
    2.9878    0.1918   -1.4972 C   0  0  0  0  0  0  0  0  0  0  0  0
    2.3094    1.0357   -0.9345 O   0  0  0  0  0  0  0  0  0  0  0  0
    3.2994    0.3165   -2.8008 O   0  0  0  0  0  0  0  0  0  0  0  0
    4.0612   -2.1628    1.2513 N   0  0  0  0  0  0  0  0  0  0  0  0
   -1.5584    0.1082    1.0949 C   0  0  0  0  0  0  0  0  0  0  0  0
   -1.2621    1.7386    0.2998 S   0  0  0  0  0  0  0  0  0  0  0  0
   -2.6082    2.7557    1.0266 C   0  0  0  0  0  0  0  0  0  0  0  0
   -3.9769    2.3258    0.5086 C   0  0  0  0  0  0  0  0  0  0  0  0
   -2.5621    2.7770    2.5504 C   0  0  0  0  0  0  0  0  0  0  0  0
   -1.1994   -0.8424   -3.5076 H   0  0  0  0  0  0  0  0  0  0  0  0
    0.4558   -1.4261   -3.7723 H   0  0  0  0  0  0  0  0  0  0  0  0
   -0.7841   -2.5734   -3.2264 H   0  0  0  0  0  0  0  0  0  0  0  0
   -0.8320   -1.9177    1.1047 H   0  0  0  0  0  0  0  0  0  0  0  0
    1.0412    0.2326    0.2434 H   0  0  0  0  0  0  0  0  0  0  0  0
    3.2891   -0.2173    1.1112 H   0  0  0  0  0  0  0  0  0  0  0  0
    3.1835   -1.9205   -1.4584 H   0  0  0  0  0  0  0  0  0  0  0  0
    4.6436   -1.0015   -0.9970 H   0  0  0  0  0  0  0  0  0  0  0  0
    2.8818    1.1595   -3.0771 H   0  0  0  0  0  0  0  0  0  0  0  0
    3.7845   -2.2210    2.2339 H   0  0  0  0  0  0  0  0  0  0  0  0
    3.8119   -3.0875    0.8835 H   0  0  0  0  0  0  0  0  0  0  0  0
   -2.6098   -0.1675    0.9773 H   0  0  0  0  0  0  0  0  0  0  0  0
   -1.3454    0.2154    2.1634 H   0  0  0  0  0  0  0  0  0  0  0  0
   -2.4226    3.7761    0.6715 H   0  0  0  0  0  0  0  0  0  0  0  0
   -4.0049    2.3146   -0.5865 H   0  0  0  0  0  0  0  0  0  0  0  0
   -4.2679    1.3357    0.8725 H   0  0  0  0  0  0  0  0  0  0  0  0
   -4.7454    3.0306    0.8461 H   0  0  0  0  0  0  0  0  0  0  0  0
   -1.5716    3.0674    2.9171 H   0  0  0  0  0  0  0  0  0  0  0  0
   -3.2805    3.5081    2.9383 H   0  0  0  0  0  0  0  0  0  0  0  0
   -2.8252    1.8080    2.9864 H   0  0  0  0  0  0  0  0  0  0  0  0
  1  2  1  0
  2  3  1  0
  3  4  2  0
  3  5  1  0
  5  6  1  0
  6  7  1  0
  7  8  2  0
  7  9  1  0
  9 10  1  0
 10 11  1  0
 11 12  2  0
 11 13  1  0
  9 14  1  0
  5 15  1  0
 15 16  1  0
 16 17  1  0
 17 18  1  0
 17 19  1  0
  1 20  1  0
  1 21  1  0
  1 22  1  0
  5 23  1  0
  6 24  1  0
  9 25  1  0
 10 26  1  0
 10 27  1  0
 13 28  1  0
 14 29  1  0
 14 30  1  0
 15 31  1  0
 15 32  1  0
 17 33  1  0
 18 34  1  0
 18 35  1  0
 18 36  1  0
 19 37  1  0
 19 38  1  0
 19 39  1  0
M  END
