
     RDKit          3D

 42 41  0  0  0  0  0  0  0  0999 V2000
    1.5510   -2.5963   -2.7738 C   0  0  0  0  0  0  0  0  0  0  0  0
    1.1845   -1.6382   -1.7806 O   0  0  0  0  0  0  0  0  0  0  0  0
   -0.1622   -1.4692   -1.6359 C   0  0  0  0  0  0  0  0  0  0  0  0
   -1.0063   -2.0425   -2.3168 O   0  0  0  0  0  0  0  0  0  0  0  0
   -0.5107   -0.4484   -0.5382 C   0  0  0  0  0  0  0  0  0  0  0  0
    0.6770    0.0847    0.1346 N   0  0  0  0  0  0  0  0  0  0  0  0
    1.2822   -0.6071    1.1558 C   0  0  0  0  0  0  0  0  0  0  0  0
    0.7959   -1.6215    1.6534 O   0  0  0  0  0  0  0  0  0  0  0  0
    2.6332   -0.0189    1.6271 C   0  0  0  0  0  0  0  0  0  0  0  0
    3.7643   -0.5104    0.7227 C   0  0  0  0  0  0  0  0  0  0  0  0
    3.8004    0.2511   -0.5723 C   0  0  0  0  0  0  0  0  0  0  0  0
    2.9838    1.0675   -0.9688 O   0  0  0  0  0  0  0  0  0  0  0  0
    4.8681   -0.0750   -1.3252 O   0  0  0  0  0  0  0  0  0  0  0  0
    2.8807   -0.4652    3.0208 N   0  0  0  0  0  0  0  0  0  0  0  0
   -1.3402    0.6608   -1.1979 C   0  0  0  0  0  0  0  0  0  0  0  0
   -1.7680    2.1015   -0.1415 S   0  0  0  0  0  0  0  0  0  0  0  0
   -3.0163    1.4353    1.0570 C   0  0  0  0  0  0  0  0  0  0  0  0
   -3.8523    2.6500    1.5011 C   0  0  0  0  0  0  0  0  0  0  0  0
   -2.3030    0.8590    2.2857 C   0  0  0  0  0  0  0  0  0  0  0  0
   -3.9568    0.3967    0.4375 C   0  0  0  0  0  0  0  0  0  0  0  0
    1.2155   -2.2692   -3.7628 H   0  0  0  0  0  0  0  0  0  0  0  0
    2.6419   -2.6704   -2.7851 H   0  0  0  0  0  0  0  0  0  0  0  0
    1.1397   -3.5806   -2.5291 H   0  0  0  0  0  0  0  0  0  0  0  0
   -1.1050   -0.9996    0.1966 H   0  0  0  0  0  0  0  0  0  0  0  0
    1.2489    0.7502   -0.3873 H   0  0  0  0  0  0  0  0  0  0  0  0
    2.5657    1.0750    1.6317 H   0  0  0  0  0  0  0  0  0  0  0  0
    3.6539   -1.5768    0.4943 H   0  0  0  0  0  0  0  0  0  0  0  0
    4.7312   -0.3495    1.2153 H   0  0  0  0  0  0  0  0  0  0  0  0
    4.7944    0.4805   -2.1292 H   0  0  0  0  0  0  0  0  0  0  0  0
    2.7467   -1.4821    3.0431 H   0  0  0  0  0  0  0  0  0  0  0  0
    2.1144   -0.1169    3.6016 H   0  0  0  0  0  0  0  0  0  0  0  0
   -0.7583    1.0837   -2.0271 H   0  0  0  0  0  0  0  0  0  0  0  0
   -2.2503    0.2634   -1.6589 H   0  0  0  0  0  0  0  0  0  0  0  0
   -3.2339    3.4222    1.9745 H   0  0  0  0  0  0  0  0  0  0  0  0
   -4.3834    3.1078    0.6579 H   0  0  0  0  0  0  0  0  0  0  0  0
   -4.6106    2.3530    2.2358 H   0  0  0  0  0  0  0  0  0  0  0  0
   -3.0309    0.5694    3.0532 H   0  0  0  0  0  0  0  0  0  0  0  0
   -1.6263    1.5898    2.7438 H   0  0  0  0  0  0  0  0  0  0  0  0
   -1.7236   -0.0363    2.0510 H   0  0  0  0  0  0  0  0  0  0  0  0
   -4.4391    0.7773   -0.4701 H   0  0  0  0  0  0  0  0  0  0  0  0
   -3.4407   -0.5358    0.1905 H   0  0  0  0  0  0  0  0  0  0  0  0
   -4.7556    0.1312    1.1406 H   0  0  0  0  0  0  0  0  0  0  0  0
  1  2  1  0
  2  3  1  0
  3  4  2  0
  3  5  1  0
  5  6  1  0
  6  7  1  0
  7  8  2  0
  7  9  1  0
  9 10  1  0
 10 11  1  0
 11 12  2  0
 11 13  1  0
  9 14  1  0
  5 15  1  0
 15 16  1  0
 16 17  1  0
 17 18  1  0
 17 19  1  0
 17 20  1  0
  1 21  1  0
  1 22  1  0
  1 23  1  0
  5 24  1  0
  6 25  1  0
  9 26  1  0
 10 27  1  0
 10 28  1  0
 13 29  1  0
 14 30  1  0
 14 31  1  0
 15 32  1  0
 15 33  1  0
 18 34  1  0
 18 35  1  0
 18 36  1  0
 19 37  1  0
 19 38  1  0
 19 39  1  0
 20 40  1  0
 20 41  1  0
 20 42  1  0
M  END
