
     RDKit          3D

 42 41  0  0  0  0  0  0  0  0999 V2000
   -0.2966    3.0387   -3.2722 C   0  0  0  0  0  0  0  0  0  0  0  0
   -0.6786    2.4384   -2.0338 O   0  0  0  0  0  0  0  0  0  0  0  0
    0.1956    1.4951   -1.5789 C   0  0  0  0  0  0  0  0  0  0  0  0
    1.1978    1.1215   -2.1792 O   0  0  0  0  0  0  0  0  0  0  0  0
   -0.2787    0.9301   -0.2396 C   0  0  0  0  0  0  0  0  0  0  0  0
    0.8749    0.3896    0.4874 N   0  0  0  0  0  0  0  0  0  0  0  0
    1.7340    1.2314    1.1539 C   0  0  0  0  0  0  0  0  0  0  0  0
    1.5082    2.4304    1.3113 O   0  0  0  0  0  0  0  0  0  0  0  0
    3.0265    0.5579    1.6727 C   0  0  0  0  0  0  0  0  0  0  0  0
    4.0809    0.5269    0.5652 C   0  0  0  0  0  0  0  0  0  0  0  0
    3.7614   -0.5177   -0.4668 C   0  0  0  0  0  0  0  0  0  0  0  0
    2.8298   -1.3078   -0.4473 O   0  0  0  0  0  0  0  0  0  0  0  0
    4.6423   -0.5124   -1.4849 O   0  0  0  0  0  0  0  0  0  0  0  0
    3.5376    1.3388    2.8269 N   0  0  0  0  0  0  0  0  0  0  0  0
   -1.3261   -0.1526   -0.5233 C   0  0  0  0  0  0  0  0  0  0  0  0
   -1.9299   -0.5572    0.7078 O   0  0  0  0  0  0  0  0  0  0  0  0
   -2.8928   -1.6201    0.6519 C   0  0  0  0  0  0  0  0  0  0  0  0
   -3.3857   -1.7865    2.0966 C   0  0  0  0  0  0  0  0  0  0  0  0
   -2.2492   -2.9346    0.1953 C   0  0  0  0  0  0  0  0  0  0  0  0
   -4.0873   -1.2585   -0.2387 C   0  0  0  0  0  0  0  0  0  0  0  0
   -0.2762    2.2893   -4.0695 H   0  0  0  0  0  0  0  0  0  0  0  0
    0.6760    3.5317   -3.1768 H   0  0  0  0  0  0  0  0  0  0  0  0
   -1.0447    3.7947   -3.5265 H   0  0  0  0  0  0  0  0  0  0  0  0
   -0.7040    1.7392    0.3659 H   0  0  0  0  0  0  0  0  0  0  0  0
    1.2637   -0.4887    0.1422 H   0  0  0  0  0  0  0  0  0  0  0  0
    2.7875   -0.4505    2.0290 H   0  0  0  0  0  0  0  0  0  0  0  0
    5.0616    0.2740    0.9858 H   0  0  0  0  0  0  0  0  0  0  0  0
    4.1465    1.4998    0.0641 H   0  0  0  0  0  0  0  0  0  0  0  0
    4.3103   -1.1875   -2.1129 H   0  0  0  0  0  0  0  0  0  0  0  0
    3.5806    2.3204    2.5319 H   0  0  0  0  0  0  0  0  0  0  0  0
    2.8101    1.3440    3.5458 H   0  0  0  0  0  0  0  0  0  0  0  0
   -2.0968    0.2475   -1.1900 H   0  0  0  0  0  0  0  0  0  0  0  0
   -0.8506   -1.0086   -1.0139 H   0  0  0  0  0  0  0  0  0  0  0  0
   -4.1277   -2.5868    2.1852 H   0  0  0  0  0  0  0  0  0  0  0  0
   -3.8362   -0.8574    2.4622 H   0  0  0  0  0  0  0  0  0  0  0  0
   -2.5514   -2.0117    2.7700 H   0  0  0  0  0  0  0  0  0  0  0  0
   -2.9308   -3.7811    0.3297 H   0  0  0  0  0  0  0  0  0  0  0  0
   -1.3280   -3.1347    0.7547 H   0  0  0  0  0  0  0  0  0  0  0  0
   -1.9747   -2.9022   -0.8643 H   0  0  0  0  0  0  0  0  0  0  0  0
   -4.8942   -1.9933   -0.1435 H   0  0  0  0  0  0  0  0  0  0  0  0
   -3.8024   -1.2190   -1.2951 H   0  0  0  0  0  0  0  0  0  0  0  0
   -4.4828   -0.2702    0.0215 H   0  0  0  0  0  0  0  0  0  0  0  0
  1  2  1  0
  2  3  1  0
  3  4  2  0
  3  5  1  0
  5  6  1  0
  6  7  1  0
  7  8  2  0
  7  9  1  0
  9 10  1  0
 10 11  1  0
 11 12  2  0
 11 13  1  0
  9 14  1  0
  5 15  1  0
 15 16  1  0
 16 17  1  0
 17 18  1  0
 17 19  1  0
 17 20  1  0
  1 21  1  0
  1 22  1  0
  1 23  1  0
  5 24  1  0
  6 25  1  0
  9 26  1  0
 10 27  1  0
 10 28  1  0
 13 29  1  0
 14 30  1  0
 14 31  1  0
 15 32  1  0
 15 33  1  0
 18 34  1  0
 18 35  1  0
 18 36  1  0
 19 37  1  0
 19 38  1  0
 19 39  1  0
 20 40  1  0
 20 41  1  0
 20 42  1  0
M  END
