
     RDKit          3D

 40 40  0  0  0  0  0  0  0  0999 V2000
   -1.0002   -4.2914    2.4993 C   0  0  0  0  0  0  0  0  0  0  0  0
   -0.9323   -3.6604    1.2192 O   0  0  0  0  0  0  0  0  0  0  0  0
   -0.0849   -2.5918    1.1713 C   0  0  0  0  0  0  0  0  0  0  0  0
    0.5734   -2.1810    2.1198 O   0  0  0  0  0  0  0  0  0  0  0  0
   -0.0723   -1.9796   -0.2317 C   0  0  0  0  0  0  0  0  0  0  0  0
   -1.4316   -1.3413   -0.5798 C   0  0  0  0  0  0  0  0  0  0  0  0
   -1.6624    0.0517   -0.0317 C   0  0  0  0  0  0  0  0  0  0  0  0
   -1.7441    1.1424   -0.9125 C   0  0  0  0  0  0  0  0  0  0  0  0
   -1.9391    2.4378   -0.4293 C   0  0  0  0  0  0  0  0  0  0  0  0
   -2.0500    2.6452    0.9405 C   0  0  0  0  0  0  0  0  0  0  0  0
   -1.9847    1.5795    1.8280 C   0  0  0  0  0  0  0  0  0  0  0  0
   -1.7982    0.2831    1.3436 C   0  0  0  0  0  0  0  0  0  0  0  0
   -2.2029    3.8969    1.4581 O   0  0  0  0  0  0  0  0  0  0  0  0
    1.0597   -1.0612   -0.3620 N   0  0  0  0  0  0  0  0  0  0  0  0
    1.5188   -0.6241   -1.5767 C   0  0  0  0  0  0  0  0  0  0  0  0
    1.0531   -1.0234   -2.6439 O   0  0  0  0  0  0  0  0  0  0  0  0
    2.6735    0.4068   -1.5106 C   0  0  0  0  0  0  0  0  0  0  0  0
    2.1273    1.8162   -1.2826 C   0  0  0  0  0  0  0  0  0  0  0  0
    1.7201    2.0168    0.1488 C   0  0  0  0  0  0  0  0  0  0  0  0
    1.8004    1.2007    1.0519 O   0  0  0  0  0  0  0  0  0  0  0  0
    1.2081    3.2438    0.3630 O   0  0  0  0  0  0  0  0  0  0  0  0
    3.4147    0.3651   -2.7978 N   0  0  0  0  0  0  0  0  0  0  0  0
   -1.7251   -5.1078    2.4360 H   0  0  0  0  0  0  0  0  0  0  0  0
   -0.0265   -4.7119    2.7691 H   0  0  0  0  0  0  0  0  0  0  0  0
   -1.3427   -3.5825    3.2601 H   0  0  0  0  0  0  0  0  0  0  0  0
    0.1173   -2.8084   -0.9268 H   0  0  0  0  0  0  0  0  0  0  0  0
   -2.2604   -1.9795   -0.2488 H   0  0  0  0  0  0  0  0  0  0  0  0
   -1.5185   -1.3023   -1.6738 H   0  0  0  0  0  0  0  0  0  0  0  0
   -1.6462    0.9890   -1.9859 H   0  0  0  0  0  0  0  0  0  0  0  0
   -1.9841    3.2653   -1.1308 H   0  0  0  0  0  0  0  0  0  0  0  0
   -2.0781    1.7534    2.8965 H   0  0  0  0  0  0  0  0  0  0  0  0
   -1.7572   -0.5348    2.0587 H   0  0  0  0  0  0  0  0  0  0  0  0
   -2.3141    4.5223    0.7225 H   0  0  0  0  0  0  0  0  0  0  0  0
    1.3613   -0.5781    0.4893 H   0  0  0  0  0  0  0  0  0  0  0  0
    3.3690    0.1112   -0.7165 H   0  0  0  0  0  0  0  0  0  0  0  0
    2.9016    2.5609   -1.5032 H   0  0  0  0  0  0  0  0  0  0  0  0
    1.2580    2.0055   -1.9226 H   0  0  0  0  0  0  0  0  0  0  0  0
    0.8827    3.2199    1.2895 H   0  0  0  0  0  0  0  0  0  0  0  0
    2.7194    0.4233   -3.5501 H   0  0  0  0  0  0  0  0  0  0  0  0
    3.7967   -0.5773   -2.9069 H   0  0  0  0  0  0  0  0  0  0  0  0
  1  2  1  0
  2  3  1  0
  3  4  2  0
  3  5  1  0
  5  6  1  0
  6  7  1  0
  7  8  2  0
  8  9  1  0
  9 10  2  0
 10 11  1  0
 11 12  2  0
 10 13  1  0
  5 14  1  0
 14 15  1  0
 15 16  2  0
 15 17  1  0
 17 18  1  0
 18 19  1  0
 19 20  2  0
 19 21  1  0
 17 22  1  0
 12  7  1  0
  1 23  1  0
  1 24  1  0
  1 25  1  0
  5 26  1  0
  6 27  1  0
  6 28  1  0
  8 29  1  0
  9 30  1  0
 11 31  1  0
 12 32  1  0
 13 33  1  0
 14 34  1  0
 17 35  1  0
 18 36  1  0
 18 37  1  0
 21 38  1  0
 22 39  1  0
 22 40  1  0
M  END
