
     RDKit          3D

 17 18  0  0  0  0  0  0  0  0999 V2000
    3.6356   -1.6383   -0.2182 Cl  0  0  0  0  0  0  0  0  0  0  0  0
    2.1805   -0.7259   -0.1173 C   0  0  0  0  0  0  0  0  0  0  0  0
    2.2513    0.6750    0.0103 C   0  0  0  0  0  0  0  0  0  0  0  0
    1.0840    1.4449    0.0930 C   0  0  0  0  0  0  0  0  0  0  0  0
   -0.1329    0.7843    0.0396 C   0  0  0  0  0  0  0  0  0  0  0  0
   -0.1808   -0.5995   -0.0745 C   0  0  0  0  0  0  0  0  0  0  0  0
    0.9530   -1.3858   -0.1624 C   0  0  0  0  0  0  0  0  0  0  0  0
   -1.8289   -1.1507   -0.1276 S   0  0  0  0  0  6  0  0  0  0  0  0
   -2.1308   -1.8229    1.1114 O   0  0  0  0  0  0  0  0  0  0  0  0
   -2.0867   -1.7005   -1.4346 O   0  0  0  0  0  0  0  0  0  0  0  0
   -2.4509    0.4001   -0.0496 N   0  0  0  0  0  0  0  0  0  0  0  0
   -1.4713    1.3928    0.1400 C   0  0  0  0  0  0  0  0  0  0  0  0
   -1.7070    2.5501    0.4190 O   0  0  0  0  0  0  0  0  0  0  0  0
    3.2213    1.1682    0.0469 H   0  0  0  0  0  0  0  0  0  0  0  0
    1.1319    2.5255    0.1978 H   0  0  0  0  0  0  0  0  0  0  0  0
    0.8863   -2.4644   -0.2635 H   0  0  0  0  0  0  0  0  0  0  0  0
   -3.3544    0.5469    0.3898 H   0  0  0  0  0  0  0  0  0  0  0  0
  1  2  1  0
  2  3  2  0
  3  4  1  0
  4  5  2  0
  5  6  1  0
  6  7  2  0
  6  8  1  0
  8  9  2  0
  8 10  2  0
  8 11  1  0
 11 12  1  0
 12 13  2  0
  7  2  1  0
 12  5  1  0
  3 14  1  0
  4 15  1  0
  7 16  1  0
 11 17  1  0
M  END
