
     RDKit          3D

 39 39  0  0  0  0  0  0  0  0999 V2000
    3.3509    2.5876   -2.4994 C   0  0  0  0  0  0  0  0  0  0  0  0
    2.4805    2.5628   -1.3671 O   0  0  0  0  0  0  0  0  0  0  0  0
    1.4276    1.7038   -1.4945 C   0  0  0  0  0  0  0  0  0  0  0  0
    1.2194    0.9971   -2.4738 O   0  0  0  0  0  0  0  0  0  0  0  0
    0.5454    1.7495   -0.2446 C   0  0  0  0  0  0  0  0  0  0  0  0
   -0.7380    1.1032   -0.5187 N   0  0  0  0  0  0  0  0  0  0  0  0
   -1.8384    1.2833    0.2773 C   0  0  0  0  0  0  0  0  0  0  0  0
   -1.8368    2.0407    1.2473 O   0  0  0  0  0  0  0  0  0  0  0  0
   -3.0896    0.4684   -0.1338 C   0  0  0  0  0  0  0  0  0  0  0  0
   -2.9881   -0.9693    0.3752 C   0  0  0  0  0  0  0  0  0  0  0  0
   -2.0595   -1.7827   -0.4793 C   0  0  0  0  0  0  0  0  0  0  0  0
   -1.4474   -1.4011   -1.4634 O   0  0  0  0  0  0  0  0  0  0  0  0
   -1.9364   -3.0481   -0.0372 O   0  0  0  0  0  0  0  0  0  0  0  0
   -4.2889    1.1177    0.4557 N   0  0  0  0  0  0  0  0  0  0  0  0
    1.2775    1.1770    0.9835 C   0  0  0  0  0  0  0  0  0  0  0  0
    1.3642   -0.3332    1.0500 C   0  0  0  0  0  0  0  0  0  0  0  0
    2.2229   -1.0515    0.2078 C   0  0  0  0  0  0  0  0  0  0  0  0
    2.2913   -2.4442    0.2864 C   0  0  0  0  0  0  0  0  0  0  0  0
    1.5105   -3.1329    1.2119 C   0  0  0  0  0  0  0  0  0  0  0  0
    0.6585   -2.4295    2.0598 C   0  0  0  0  0  0  0  0  0  0  0  0
    0.5847   -1.0380    1.9792 C   0  0  0  0  0  0  0  0  0  0  0  0
    4.1506    3.3051   -2.2961 H   0  0  0  0  0  0  0  0  0  0  0  0
    2.8096    2.9157   -3.3923 H   0  0  0  0  0  0  0  0  0  0  0  0
    3.8012    1.6025   -2.6573 H   0  0  0  0  0  0  0  0  0  0  0  0
    0.3251    2.8094   -0.0606 H   0  0  0  0  0  0  0  0  0  0  0  0
   -0.7392    0.3571   -1.2203 H   0  0  0  0  0  0  0  0  0  0  0  0
   -3.1936    0.5049   -1.2244 H   0  0  0  0  0  0  0  0  0  0  0  0
   -3.9703   -1.4551    0.3310 H   0  0  0  0  0  0  0  0  0  0  0  0
   -2.6246   -0.9934    1.4088 H   0  0  0  0  0  0  0  0  0  0  0  0
   -1.2526   -3.4419   -0.6197 H   0  0  0  0  0  0  0  0  0  0  0  0
   -4.0969    1.2615    1.4528 H   0  0  0  0  0  0  0  0  0  0  0  0
   -4.3378    2.0713    0.0894 H   0  0  0  0  0  0  0  0  0  0  0  0
    0.7699    1.5357    1.8887 H   0  0  0  0  0  0  0  0  0  0  0  0
    2.2960    1.5809    1.0496 H   0  0  0  0  0  0  0  0  0  0  0  0
    2.8538   -0.5397   -0.5148 H   0  0  0  0  0  0  0  0  0  0  0  0
    2.9620   -2.9903   -0.3723 H   0  0  0  0  0  0  0  0  0  0  0  0
    1.5720   -4.2158    1.2785 H   0  0  0  0  0  0  0  0  0  0  0  0
    0.0499   -2.9635    2.7852 H   0  0  0  0  0  0  0  0  0  0  0  0
   -0.0854   -0.5049    2.6515 H   0  0  0  0  0  0  0  0  0  0  0  0
  1  2  1  0
  2  3  1  0
  3  4  2  0
  3  5  1  0
  5  6  1  0
  6  7  1  0
  7  8  2  0
  7  9  1  0
  9 10  1  0
 10 11  1  0
 11 12  2  0
 11 13  1  0
  9 14  1  0
  5 15  1  0
 15 16  1  0
 16 17  2  0
 17 18  1  0
 18 19  2  0
 19 20  1  0
 20 21  2  0
 21 16  1  0
  1 22  1  0
  1 23  1  0
  1 24  1  0
  5 25  1  0
  6 26  1  0
  9 27  1  0
 10 28  1  0
 10 29  1  0
 13 30  1  0
 14 31  1  0
 14 32  1  0
 15 33  1  0
 15 34  1  0
 17 35  1  0
 18 36  1  0
 19 37  1  0
 20 38  1  0
 21 39  1  0
M  END
