
     RDKit          3D

 38 37  0  0  0  0  0  0  0  0999 V2000
    3.6834    0.9583    4.6998 C   0  0  0  0  0  0  0  0  0  0  0  0
    2.6709    0.3122    3.9268 O   0  0  0  0  0  0  0  0  0  0  0  0
    2.7413    0.5741    2.5914 C   0  0  0  0  0  0  0  0  0  0  0  0
    3.5774    1.2876    2.0561 O   0  0  0  0  0  0  0  0  0  0  0  0
    1.6296   -0.1553    1.8762 C   0  0  0  0  0  0  0  0  0  0  0  0
    1.6563    0.1157    0.3710 C   0  0  0  0  0  0  0  0  0  0  0  0
    0.5688   -0.6616   -0.3718 C   0  0  0  0  0  0  0  0  0  0  0  0
    0.7399   -0.4748   -1.8877 C   0  0  0  0  0  0  0  0  0  0  0  0
    0.0570    0.2714   -2.5817 O   0  0  0  0  0  0  0  0  0  0  0  0
    1.7747   -1.2376   -2.3433 O   0  0  0  0  0  0  0  0  0  0  0  0
    2.0025   -1.1282   -3.7487 C   0  0  0  0  0  0  0  0  0  0  0  0
   -0.7631   -0.1910    0.0108 N   0  0  0  0  0  0  0  0  0  0  0  0
   -1.8572   -1.0131   -0.1543 C   0  0  0  0  0  0  0  0  0  0  0  0
   -1.7563   -2.2148   -0.3969 O   0  0  0  0  0  0  0  0  0  0  0  0
   -3.2288   -0.3082   -0.0151 C   0  0  0  0  0  0  0  0  0  0  0  0
   -3.6208    0.3498   -1.3396 C   0  0  0  0  0  0  0  0  0  0  0  0
   -2.8489    1.6187   -1.5658 C   0  0  0  0  0  0  0  0  0  0  0  0
   -2.0191    2.1105   -0.8160 O   0  0  0  0  0  0  0  0  0  0  0  0
   -3.1563    2.2009   -2.7393 O   0  0  0  0  0  0  0  0  0  0  0  0
   -4.2461   -1.3227    0.3578 N   0  0  0  0  0  0  0  0  0  0  0  0
    4.6768    0.6184    4.3906 H   0  0  0  0  0  0  0  0  0  0  0  0
    3.5992    2.0458    4.6095 H   0  0  0  0  0  0  0  0  0  0  0  0
    3.5349    0.6855    5.7483 H   0  0  0  0  0  0  0  0  0  0  0  0
    1.7511   -1.2283    2.0616 H   0  0  0  0  0  0  0  0  0  0  0  0
    0.6776    0.1777    2.3035 H   0  0  0  0  0  0  0  0  0  0  0  0
    2.6427   -0.1563   -0.0269 H   0  0  0  0  0  0  0  0  0  0  0  0
    1.5428    1.1927    0.1875 H   0  0  0  0  0  0  0  0  0  0  0  0
    0.6371   -1.7341   -0.1542 H   0  0  0  0  0  0  0  0  0  0  0  0
    2.8359   -1.7865   -4.0092 H   0  0  0  0  0  0  0  0  0  0  0  0
    1.1184   -1.4511   -4.3073 H   0  0  0  0  0  0  0  0  0  0  0  0
    2.2758   -0.1019   -4.0131 H   0  0  0  0  0  0  0  0  0  0  0  0
   -0.9354    0.8086   -0.1181 H   0  0  0  0  0  0  0  0  0  0  0  0
   -3.1726    0.4240    0.7985 H   0  0  0  0  0  0  0  0  0  0  0  0
   -4.6840    0.6183   -1.3268 H   0  0  0  0  0  0  0  0  0  0  0  0
   -3.4322   -0.3262   -2.1818 H   0  0  0  0  0  0  0  0  0  0  0  0
   -2.5498    2.9676   -2.8097 H   0  0  0  0  0  0  0  0  0  0  0  0
   -4.1719   -2.0907   -0.3182 H   0  0  0  0  0  0  0  0  0  0  0  0
   -3.9514   -1.7555    1.2360 H   0  0  0  0  0  0  0  0  0  0  0  0
  1  2  1  0
  2  3  1  0
  3  4  2  0
  3  5  1  0
  5  6  1  0
  6  7  1  0
  7  8  1  0
  8  9  2  0
  8 10  1  0
 10 11  1  0
  7 12  1  0
 12 13  1  0
 13 14  2  0
 13 15  1  0
 15 16  1  0
 16 17  1  0
 17 18  2  0
 17 19  1  0
 15 20  1  0
  1 21  1  0
  1 22  1  0
  1 23  1  0
  5 24  1  0
  5 25  1  0
  6 26  1  0
  6 27  1  0
  7 28  1  0
 11 29  1  0
 11 30  1  0
 11 31  1  0
 12 32  1  0
 15 33  1  0
 16 34  1  0
 16 35  1  0
 19 36  1  0
 20 37  1  0
 20 38  1  0
M  END
