
     RDKit          3D

 29 28  0  0  0  0  0  0  0  0999 V2000
    2.4911    2.5560    0.7199 C   0  0  0  0  0  0  0  0  0  0  0  0
    2.2727    1.0927    0.4814 C   0  0  0  0  0  0  0  0  0  0  0  0
    1.8564    0.3140    1.3336 O   0  0  0  0  0  0  0  0  0  0  0  0
    2.6375    0.7587   -0.7841 O   0  0  0  0  0  0  0  0  0  0  0  0
    2.5188   -0.6272   -1.1544 C   0  0  0  0  0  0  0  0  0  0  0  0
    1.1803   -0.9037   -1.8392 C   0  0  0  0  0  0  0  0  0  0  0  0
    0.0599   -0.9115   -0.9169 N   0  0  0  0  0  0  0  0  0  0  0  0
   -1.2409   -0.9216   -1.3711 C   0  0  0  0  0  0  0  0  0  0  0  0
   -1.5300   -0.8217   -2.5624 O   0  0  0  0  0  0  0  0  0  0  0  0
   -2.3170   -1.0732   -0.2649 C   0  0  0  0  0  0  0  0  0  0  0  0
   -2.5123    0.2314    0.5073 C   0  0  0  0  0  0  0  0  0  0  0  0
   -1.2737    0.6715    1.2341 C   0  0  0  0  0  0  0  0  0  0  0  0
   -0.8766    1.8228    1.3181 O   0  0  0  0  0  0  0  0  0  0  0  0
   -0.5996   -0.3442    1.8094 O   0  0  0  0  0  0  0  0  0  0  0  0
   -3.6025   -1.4749   -0.8896 N   0  0  0  0  0  0  0  0  0  0  0  0
    1.7436    2.9196    1.4301 H   0  0  0  0  0  0  0  0  0  0  0  0
    3.4979    2.7126    1.1163 H   0  0  0  0  0  0  0  0  0  0  0  0
    2.3643    3.1190   -0.2107 H   0  0  0  0  0  0  0  0  0  0  0  0
    2.6841   -1.2895   -0.2957 H   0  0  0  0  0  0  0  0  0  0  0  0
    3.3275   -0.8193   -1.8670 H   0  0  0  0  0  0  0  0  0  0  0  0
    1.2046   -1.8911   -2.3123 H   0  0  0  0  0  0  0  0  0  0  0  0
    0.9811   -0.1528   -2.6121 H   0  0  0  0  0  0  0  0  0  0  0  0
    0.2291   -1.1872    0.0486 H   0  0  0  0  0  0  0  0  0  0  0  0
   -2.0103   -1.8847    0.4054 H   0  0  0  0  0  0  0  0  0  0  0  0
   -2.7827    1.0379   -0.1870 H   0  0  0  0  0  0  0  0  0  0  0  0
   -3.3145    0.1342    1.2478 H   0  0  0  0  0  0  0  0  0  0  0  0
    0.2632    0.0569    2.0960 H   0  0  0  0  0  0  0  0  0  0  0  0
   -3.4411   -2.3367   -1.4151 H   0  0  0  0  0  0  0  0  0  0  0  0
   -3.8107   -0.7880   -1.6226 H   0  0  0  0  0  0  0  0  0  0  0  0
  1  2  1  0
  2  3  2  0
  2  4  1  0
  4  5  1  0
  5  6  1  0
  6  7  1  0
  7  8  1  0
  8  9  2  0
  8 10  1  0
 10 11  1  0
 11 12  1  0
 12 13  2  0
 12 14  1  0
 10 15  1  0
  1 16  1  0
  1 17  1  0
  1 18  1  0
  5 19  1  0
  5 20  1  0
  6 21  1  0
  6 22  1  0
  7 23  1  0
 10 24  1  0
 11 25  1  0
 11 26  1  0
 14 27  1  0
 15 28  1  0
 15 29  1  0
M  END
