
     RDKit          3D

 32 31  0  0  0  0  0  0  0  0999 V2000
    3.3881    2.3037   -2.0418 C   0  0  0  0  0  0  0  0  0  0  0  0
    2.5319    1.8661   -0.8666 C   0  0  0  0  0  0  0  0  0  0  0  0
    2.5375    0.3672   -0.6886 C   0  0  0  0  0  0  0  0  0  0  0  0
    3.1632   -0.4292   -1.3725 O   0  0  0  0  0  0  0  0  0  0  0  0
    1.7285    0.0343    0.3559 O   0  0  0  0  0  0  0  0  0  0  0  0
    1.6288   -1.3752    0.6403 C   0  0  0  0  0  0  0  0  0  0  0  0
    0.6813   -2.0729   -0.3409 C   0  0  0  0  0  0  0  0  0  0  0  0
   -0.6507   -1.4926   -0.3240 N   0  0  0  0  0  0  0  0  0  0  0  0
   -1.5303   -1.7378    0.7039 C   0  0  0  0  0  0  0  0  0  0  0  0
   -1.3024   -2.5468    1.6022 O   0  0  0  0  0  0  0  0  0  0  0  0
   -2.8335   -0.9053    0.6517 C   0  0  0  0  0  0  0  0  0  0  0  0
   -2.6033    0.4718    1.2753 C   0  0  0  0  0  0  0  0  0  0  0  0
   -1.9097    1.4002    0.3182 C   0  0  0  0  0  0  0  0  0  0  0  0
   -1.4189    1.1141   -0.7625 O   0  0  0  0  0  0  0  0  0  0  0  0
   -1.8504    2.6608    0.7881 O   0  0  0  0  0  0  0  0  0  0  0  0
   -3.8842   -1.6269    1.4126 N   0  0  0  0  0  0  0  0  0  0  0  0
    3.3627    3.3926   -2.1476 H   0  0  0  0  0  0  0  0  0  0  0  0
    3.0288    1.8602   -2.9765 H   0  0  0  0  0  0  0  0  0  0  0  0
    4.4304    1.9970   -1.9049 H   0  0  0  0  0  0  0  0  0  0  0  0
    1.4993    2.1921   -1.0302 H   0  0  0  0  0  0  0  0  0  0  0  0
    2.9120    2.3256    0.0518 H   0  0  0  0  0  0  0  0  0  0  0  0
    2.6225   -1.8381    0.6248 H   0  0  0  0  0  0  0  0  0  0  0  0
    1.2519   -1.4605    1.6649 H   0  0  0  0  0  0  0  0  0  0  0  0
    1.0410   -1.9837   -1.3700 H   0  0  0  0  0  0  0  0  0  0  0  0
    0.6059   -3.1361   -0.0897 H   0  0  0  0  0  0  0  0  0  0  0  0
   -0.8002   -0.6565   -0.8893 H   0  0  0  0  0  0  0  0  0  0  0  0
   -3.1676   -0.8269   -0.3892 H   0  0  0  0  0  0  0  0  0  0  0  0
   -3.5678    0.9322    1.5233 H   0  0  0  0  0  0  0  0  0  0  0  0
   -1.9992    0.3992    2.1869 H   0  0  0  0  0  0  0  0  0  0  0  0
   -1.3945    3.1773    0.0916 H   0  0  0  0  0  0  0  0  0  0  0  0
   -3.4867   -1.8642    2.3282 H   0  0  0  0  0  0  0  0  0  0  0  0
   -4.0145   -2.5418    0.9742 H   0  0  0  0  0  0  0  0  0  0  0  0
  1  2  1  0
  2  3  1  0
  3  4  2  0
  3  5  1  0
  5  6  1  0
  6  7  1  0
  7  8  1  0
  8  9  1  0
  9 10  2  0
  9 11  1  0
 11 12  1  0
 12 13  1  0
 13 14  2  0
 13 15  1  0
 11 16  1  0
  1 17  1  0
  1 18  1  0
  1 19  1  0
  2 20  1  0
  2 21  1  0
  6 22  1  0
  6 23  1  0
  7 24  1  0
  7 25  1  0
  8 26  1  0
 11 27  1  0
 12 28  1  0
 12 29  1  0
 15 30  1  0
 16 31  1  0
 16 32  1  0
M  END
