
     RDKit          3D

 35 34  0  0  0  0  0  0  0  0999 V2000
   -3.9110   -3.5650    0.0940 C   0  0  0  0  0  0  0  0  0  0  0  0
   -3.5791   -2.1800    0.6238 C   0  0  0  0  0  0  0  0  0  0  0  0
   -2.8804   -1.3321   -0.4306 C   0  0  0  0  0  0  0  0  0  0  0  0
   -2.5922    0.0486    0.0976 C   0  0  0  0  0  0  0  0  0  0  0  0
   -3.2579    1.0400   -0.1655 O   0  0  0  0  0  0  0  0  0  0  0  0
   -1.4985    0.0294    0.9071 O   0  0  0  0  0  0  0  0  0  0  0  0
   -1.1310    1.2977    1.4816 C   0  0  0  0  0  0  0  0  0  0  0  0
   -0.3314    2.1379    0.4870 C   0  0  0  0  0  0  0  0  0  0  0  0
    0.8865    1.4588    0.0755 N   0  0  0  0  0  0  0  0  0  0  0  0
    1.9520    2.1482   -0.4543 C   0  0  0  0  0  0  0  0  0  0  0  0
    2.0042    3.3770   -0.4823 O   0  0  0  0  0  0  0  0  0  0  0  0
    3.0904    1.2594   -1.0207 C   0  0  0  0  0  0  0  0  0  0  0  0
    3.7833    0.4716    0.0917 C   0  0  0  0  0  0  0  0  0  0  0  0
    3.0188   -0.7772    0.4308 C   0  0  0  0  0  0  0  0  0  0  0  0
    1.9249   -1.1095    0.0016 O   0  0  0  0  0  0  0  0  0  0  0  0
    3.6700   -1.5448    1.3251 O   0  0  0  0  0  0  0  0  0  0  0  0
    4.0841    2.1367   -1.6926 N   0  0  0  0  0  0  0  0  0  0  0  0
   -3.0027   -4.0989   -0.2034 H   0  0  0  0  0  0  0  0  0  0  0  0
   -4.4147   -4.1554    0.8657 H   0  0  0  0  0  0  0  0  0  0  0  0
   -4.5745   -3.5046   -0.7745 H   0  0  0  0  0  0  0  0  0  0  0  0
   -4.5013   -1.6843    0.9498 H   0  0  0  0  0  0  0  0  0  0  0  0
   -2.9434   -2.2751    1.5121 H   0  0  0  0  0  0  0  0  0  0  0  0
   -3.5073   -1.2283   -1.3239 H   0  0  0  0  0  0  0  0  0  0  0  0
   -1.9404   -1.7903   -0.7589 H   0  0  0  0  0  0  0  0  0  0  0  0
   -0.5193    1.0770    2.3632 H   0  0  0  0  0  0  0  0  0  0  0  0
   -2.0204    1.8350    1.8309 H   0  0  0  0  0  0  0  0  0  0  0  0
   -0.0739    3.1040    0.9335 H   0  0  0  0  0  0  0  0  0  0  0  0
   -0.9053    2.3258   -0.4260 H   0  0  0  0  0  0  0  0  0  0  0  0
    0.8137    0.4611   -0.1277 H   0  0  0  0  0  0  0  0  0  0  0  0
    2.6631    0.5990   -1.7839 H   0  0  0  0  0  0  0  0  0  0  0  0
    3.8889    1.0761    0.9995 H   0  0  0  0  0  0  0  0  0  0  0  0
    4.7782    0.1502   -0.2405 H   0  0  0  0  0  0  0  0  0  0  0  0
    3.0904   -2.3219    1.4692 H   0  0  0  0  0  0  0  0  0  0  0  0
    4.3512    2.8661   -1.0234 H   0  0  0  0  0  0  0  0  0  0  0  0
    3.5848    2.6677   -2.4119 H   0  0  0  0  0  0  0  0  0  0  0  0
  1  2  1  0
  2  3  1  0
  3  4  1  0
  4  5  2  0
  4  6  1  0
  6  7  1  0
  7  8  1  0
  8  9  1  0
  9 10  1  0
 10 11  2  0
 10 12  1  0
 12 13  1  0
 13 14  1  0
 14 15  2  0
 14 16  1  0
 12 17  1  0
  1 18  1  0
  1 19  1  0
  1 20  1  0
  2 21  1  0
  2 22  1  0
  3 23  1  0
  3 24  1  0
  7 25  1  0
  7 26  1  0
  8 27  1  0
  8 28  1  0
  9 29  1  0
 12 30  1  0
 13 31  1  0
 13 32  1  0
 16 33  1  0
 17 34  1  0
 17 35  1  0
M  END
