
     RDKit          3D

 35 34  0  0  0  0  0  0  0  0999 V2000
   -4.0029   -1.9898    0.4736 N   0  0  0  0  0  0  0  0  0  0  0  0
   -3.1067   -0.8148    0.3179 C   0  0  0  0  0  0  0  0  0  0  0  0
   -1.8858   -0.9995    1.2560 C   0  0  0  0  0  0  0  0  0  0  0  0
   -1.8194   -1.9120    2.0789 O   0  0  0  0  0  0  0  0  0  0  0  0
   -0.8809   -0.0766    1.0908 N   0  0  0  0  0  0  0  0  0  0  0  0
    0.3771   -0.1716    1.8121 C   0  0  0  0  0  0  0  0  0  0  0  0
    1.3195   -1.2106    1.1984 C   0  0  0  0  0  0  0  0  0  0  0  0
    1.6638   -0.8635   -0.1572 O   0  0  0  0  0  0  0  0  0  0  0  0
    2.6307    0.0870   -0.2942 C   0  0  0  0  0  0  0  0  0  0  0  0
    3.1897    0.6530    0.6347 O   0  0  0  0  0  0  0  0  0  0  0  0
    2.9067    0.3352   -1.7655 C   0  0  0  0  0  0  0  0  0  0  0  0
    3.5769    1.6913   -1.9683 C   0  0  0  0  0  0  0  0  0  0  0  0
    3.7696   -0.7897   -2.3244 C   0  0  0  0  0  0  0  0  0  0  0  0
   -3.8789    0.4595    0.6619 C   0  0  0  0  0  0  0  0  0  0  0  0
   -3.2484    1.6671    0.0266 C   0  0  0  0  0  0  0  0  0  0  0  0
   -2.1775    1.7157   -0.5582 O   0  0  0  0  0  0  0  0  0  0  0  0
   -3.9971    2.7747    0.1863 O   0  0  0  0  0  0  0  0  0  0  0  0
   -4.1997   -2.0952    1.4742 H   0  0  0  0  0  0  0  0  0  0  0  0
   -3.4505   -2.8261    0.2648 H   0  0  0  0  0  0  0  0  0  0  0  0
   -2.7475   -0.8074   -0.7176 H   0  0  0  0  0  0  0  0  0  0  0  0
   -0.9226    0.5543    0.2905 H   0  0  0  0  0  0  0  0  0  0  0  0
    0.1649   -0.4357    2.8535 H   0  0  0  0  0  0  0  0  0  0  0  0
    0.8195    0.8286    1.7904 H   0  0  0  0  0  0  0  0  0  0  0  0
    0.8377   -2.1932    1.1587 H   0  0  0  0  0  0  0  0  0  0  0  0
    2.2272   -1.3226    1.8030 H   0  0  0  0  0  0  0  0  0  0  0  0
    1.9427    0.3592   -2.2888 H   0  0  0  0  0  0  0  0  0  0  0  0
    3.7218    1.8980   -3.0338 H   0  0  0  0  0  0  0  0  0  0  0  0
    2.9631    2.4954   -1.5478 H   0  0  0  0  0  0  0  0  0  0  0  0
    4.5561    1.7322   -1.4784 H   0  0  0  0  0  0  0  0  0  0  0  0
    4.7294   -0.8520   -1.7995 H   0  0  0  0  0  0  0  0  0  0  0  0
    3.2720   -1.7591   -2.2128 H   0  0  0  0  0  0  0  0  0  0  0  0
    3.9712   -0.6355   -3.3895 H   0  0  0  0  0  0  0  0  0  0  0  0
   -4.9011    0.3946    0.2687 H   0  0  0  0  0  0  0  0  0  0  0  0
   -3.9239    0.6171    1.7455 H   0  0  0  0  0  0  0  0  0  0  0  0
   -3.4966    3.4922   -0.2557 H   0  0  0  0  0  0  0  0  0  0  0  0
  1  2  1  0
  2  3  1  0
  3  4  2  0
  3  5  1  0
  5  6  1  0
  6  7  1  0
  7  8  1  0
  8  9  1  0
  9 10  2  0
  9 11  1  0
 11 12  1  0
 11 13  1  0
  2 14  1  0
 14 15  1  0
 15 16  2  0
 15 17  1  0
  1 18  1  0
  1 19  1  0
  2 20  1  0
  5 21  1  0
  6 22  1  0
  6 23  1  0
  7 24  1  0
  7 25  1  0
 11 26  1  0
 12 27  1  0
 12 28  1  0
 12 29  1  0
 13 30  1  0
 13 31  1  0
 13 32  1  0
 14 33  1  0
 14 34  1  0
 17 35  1  0
M  END
