
     RDKit          3D

 33 33  0  0  0  0  0  0  0  0999 V2000
    3.5404    0.0925   -2.5418 N   0  0  0  0  0  0  0  0  0  0  0  0
    2.7584   -0.0981   -1.2928 C   0  0  0  0  0  0  0  0  0  0  0  0
    1.3913   -0.7311   -1.6598 C   0  0  0  0  0  0  0  0  0  0  0  0
    1.1366   -1.1371   -2.7932 O   0  0  0  0  0  0  0  0  0  0  0  0
    0.4842   -0.7942   -0.6293 N   0  0  0  0  0  0  0  0  0  0  0  0
   -0.8770   -1.2613   -0.8301 C   0  0  0  0  0  0  0  0  0  0  0  0
   -1.7691   -0.1921   -1.4670 C   0  0  0  0  0  0  0  0  0  0  0  0
   -1.8717    0.9701   -0.6225 O   0  0  0  0  0  0  0  0  0  0  0  0
   -2.7437    0.8601    0.4128 C   0  0  0  0  0  0  0  0  0  0  0  0
   -3.4135   -0.1261    0.6834 O   0  0  0  0  0  0  0  0  0  0  0  0
   -2.7823    2.1078    1.2166 C   0  0  0  0  0  0  0  0  0  0  0  0
   -2.8948    2.0414    2.7218 C   0  0  0  0  0  0  0  0  0  0  0  0
   -4.0557    2.5362    1.9074 C   0  0  0  0  0  0  0  0  0  0  0  0
    3.5428   -0.9979   -0.3369 C   0  0  0  0  0  0  0  0  0  0  0  0
    3.1006   -0.7982    1.0857 C   0  0  0  0  0  0  0  0  0  0  0  0
    2.1487   -0.1397    1.4745 O   0  0  0  0  0  0  0  0  0  0  0  0
    3.8760   -1.4697    1.9580 O   0  0  0  0  0  0  0  0  0  0  0  0
    2.9784    0.6740   -3.1696 H   0  0  0  0  0  0  0  0  0  0  0  0
    3.5624   -0.8086   -3.0303 H   0  0  0  0  0  0  0  0  0  0  0  0
    2.5752    0.8932   -0.8625 H   0  0  0  0  0  0  0  0  0  0  0  0
    0.6954   -0.3044    0.2403 H   0  0  0  0  0  0  0  0  0  0  0  0
   -0.8514   -2.1492   -1.4707 H   0  0  0  0  0  0  0  0  0  0  0  0
   -1.2494   -1.5548    0.1556 H   0  0  0  0  0  0  0  0  0  0  0  0
   -2.7665   -0.5926   -1.6838 H   0  0  0  0  0  0  0  0  0  0  0  0
   -1.3464    0.1467   -2.4187 H   0  0  0  0  0  0  0  0  0  0  0  0
   -2.1637    2.9084    0.8206 H   0  0  0  0  0  0  0  0  0  0  0  0
   -2.9869    1.0676    3.1910 H   0  0  0  0  0  0  0  0  0  0  0  0
   -2.3355    2.7640    3.3044 H   0  0  0  0  0  0  0  0  0  0  0  0
   -4.9273    1.8948    1.8288 H   0  0  0  0  0  0  0  0  0  0  0  0
   -4.2854    3.5948    1.9366 H   0  0  0  0  0  0  0  0  0  0  0  0
    4.6092   -0.7427   -0.3739 H   0  0  0  0  0  0  0  0  0  0  0  0
    3.4208   -2.0555   -0.5964 H   0  0  0  0  0  0  0  0  0  0  0  0
    3.5001   -1.2748    2.8419 H   0  0  0  0  0  0  0  0  0  0  0  0
  1  2  1  0
  2  3  1  0
  3  4  2  0
  3  5  1  0
  5  6  1  0
  6  7  1  0
  7  8  1  0
  8  9  1  0
  9 10  2  0
  9 11  1  0
 11 12  1  0
 12 13  1  0
  2 14  1  0
 14 15  1  0
 15 16  2  0
 15 17  1  0
 13 11  1  0
  1 18  1  0
  1 19  1  0
  2 20  1  0
  5 21  1  0
  6 22  1  0
  6 23  1  0
  7 24  1  0
  7 25  1  0
 11 26  1  0
 12 27  1  0
 12 28  1  0
 13 29  1  0
 13 30  1  0
 14 31  1  0
 14 32  1  0
 17 33  1  0
M  END
