
     RDKit          3D

 36 36  0  0  0  0  0  0  0  0999 V2000
   -2.1378    1.0949   -1.6231 N   0  0  0  0  0  0  0  0  0  0  0  0
   -2.6991    0.6026   -0.3336 C   0  0  0  0  0  0  0  0  0  0  0  0
   -2.1403   -0.8129   -0.0446 C   0  0  0  0  0  0  0  0  0  0  0  0
   -2.7843   -1.6947    0.5139 O   0  0  0  0  0  0  0  0  0  0  0  0
   -0.8327   -0.9684   -0.4482 N   0  0  0  0  0  0  0  0  0  0  0  0
   -0.0337   -2.1285   -0.1032 C   0  0  0  0  0  0  0  0  0  0  0  0
    1.1035   -2.3408   -1.1008 C   0  0  0  0  0  0  0  0  0  0  0  0
    1.9808   -1.1980   -1.1273 O   0  0  0  0  0  0  0  0  0  0  0  0
    2.9194   -1.1441   -0.1347 C   0  0  0  0  0  0  0  0  0  0  0  0
    3.0387   -2.0165    0.7231 O   0  0  0  0  0  0  0  0  0  0  0  0
    3.7813    0.1352   -0.2328 C   0  0  0  0  0  0  0  0  0  0  0  0
    4.1100    0.8774    1.0921 C   0  0  0  0  0  0  0  0  0  0  0  0
    4.0220    2.1957    0.3015 C   0  0  0  0  0  0  0  0  0  0  0  0
    3.1009    1.4573   -0.6867 C   0  0  0  0  0  0  0  0  0  0  0  0
   -4.2262    0.5808   -0.3643 C   0  0  0  0  0  0  0  0  0  0  0  0
   -4.7798    0.4485    1.0275 C   0  0  0  0  0  0  0  0  0  0  0  0
   -4.2762    0.8632    2.0577 O   0  0  0  0  0  0  0  0  0  0  0  0
   -5.9924   -0.1381    1.0411 O   0  0  0  0  0  0  0  0  0  0  0  0
   -2.4650    0.4829   -2.3735 H   0  0  0  0  0  0  0  0  0  0  0  0
   -2.5304    2.0151   -1.8239 H   0  0  0  0  0  0  0  0  0  0  0  0
   -2.3269    1.2610    0.4600 H   0  0  0  0  0  0  0  0  0  0  0  0
   -0.3828   -0.1374   -0.8258 H   0  0  0  0  0  0  0  0  0  0  0  0
   -0.6774   -3.0135   -0.0701 H   0  0  0  0  0  0  0  0  0  0  0  0
    0.3520   -1.9491    0.9054 H   0  0  0  0  0  0  0  0  0  0  0  0
    1.6653   -3.2549   -0.8767 H   0  0  0  0  0  0  0  0  0  0  0  0
    0.6999   -2.4499   -2.1135 H   0  0  0  0  0  0  0  0  0  0  0  0
    4.6934   -0.0687   -0.8136 H   0  0  0  0  0  0  0  0  0  0  0  0
    5.0875    0.6565    1.5289 H   0  0  0  0  0  0  0  0  0  0  0  0
    3.3423    0.7757    1.8683 H   0  0  0  0  0  0  0  0  0  0  0  0
    3.5739    3.0400    0.8309 H   0  0  0  0  0  0  0  0  0  0  0  0
    4.9757    2.5120   -0.1364 H   0  0  0  0  0  0  0  0  0  0  0  0
    3.2337    1.7213   -1.7392 H   0  0  0  0  0  0  0  0  0  0  0  0
    2.0365    1.5297   -0.4333 H   0  0  0  0  0  0  0  0  0  0  0  0
   -4.6264    1.5130   -0.7792 H   0  0  0  0  0  0  0  0  0  0  0  0
   -4.5860   -0.2532   -0.9787 H   0  0  0  0  0  0  0  0  0  0  0  0
   -6.2192   -0.1941    1.9932 H   0  0  0  0  0  0  0  0  0  0  0  0
  1  2  1  0
  2  3  1  0
  3  4  2  0
  3  5  1  0
  5  6  1  0
  6  7  1  0
  7  8  1  0
  8  9  1  0
  9 10  2  0
  9 11  1  0
 11 12  1  0
 12 13  1  0
 13 14  1  0
  2 15  1  0
 15 16  1  0
 16 17  2  0
 16 18  1  0
 14 11  1  0
  1 19  1  0
  1 20  1  0
  2 21  1  0
  5 22  1  0
  6 23  1  0
  6 24  1  0
  7 25  1  0
  7 26  1  0
 11 27  1  0
 12 28  1  0
 12 29  1  0
 13 30  1  0
 13 31  1  0
 14 32  1  0
 14 33  1  0
 15 34  1  0
 15 35  1  0
 18 36  1  0
M  END
