
     RDKit          3D

 38 37  0  0  0  0  0  0  0  0999 V2000
   -4.4015    0.5527    0.5384 C   0  0  0  0  0  0  0  0  0  0  0  0
   -3.0001    0.1233    0.9743 C   0  0  0  0  0  0  0  0  0  0  0  0
   -3.0327   -1.3188    1.4989 C   0  0  0  0  0  0  0  0  0  0  0  0
   -1.6549   -1.8656    1.7800 C   0  0  0  0  0  0  0  0  0  0  0  0
   -1.2566   -2.1861    2.8910 O   0  0  0  0  0  0  0  0  0  0  0  0
   -0.9292   -1.9435    0.6333 O   0  0  0  0  0  0  0  0  0  0  0  0
    0.4170   -2.4371    0.7780 C   0  0  0  0  0  0  0  0  0  0  0  0
    1.3489   -1.3577    1.3389 C   0  0  0  0  0  0  0  0  0  0  0  0
    1.3837   -0.1675    0.5066 N   0  0  0  0  0  0  0  0  0  0  0  0
    2.0829   -0.1309   -0.6831 C   0  0  0  0  0  0  0  0  0  0  0  0
    2.7001   -1.0935   -1.1281 O   0  0  0  0  0  0  0  0  0  0  0  0
    1.9300    1.2094   -1.4351 C   0  0  0  0  0  0  0  0  0  0  0  0
    2.9715    1.3415   -2.5443 C   0  0  0  0  0  0  0  0  0  0  0  0
    4.3433    1.4855   -1.9486 C   0  0  0  0  0  0  0  0  0  0  0  0
    4.6181    1.7468   -0.7894 O   0  0  0  0  0  0  0  0  0  0  0  0
    5.3161    1.3357   -2.8686 O   0  0  0  0  0  0  0  0  0  0  0  0
    0.5623    1.2623   -2.0114 N   0  0  0  0  0  0  0  0  0  0  0  0
   -2.4600    1.0931    2.0276 C   0  0  0  0  0  0  0  0  0  0  0  0
   -4.3894    1.5718    0.1376 H   0  0  0  0  0  0  0  0  0  0  0  0
   -5.1047    0.5270    1.3778 H   0  0  0  0  0  0  0  0  0  0  0  0
   -4.7845   -0.1091   -0.2456 H   0  0  0  0  0  0  0  0  0  0  0  0
   -2.3429    0.1785    0.0973 H   0  0  0  0  0  0  0  0  0  0  0  0
   -3.6198   -1.3794    2.4234 H   0  0  0  0  0  0  0  0  0  0  0  0
   -3.5139   -1.9902    0.7773 H   0  0  0  0  0  0  0  0  0  0  0  0
    0.4261   -3.3314    1.4121 H   0  0  0  0  0  0  0  0  0  0  0  0
    0.7439   -2.7488   -0.2193 H   0  0  0  0  0  0  0  0  0  0  0  0
    2.3662   -1.7545    1.4241 H   0  0  0  0  0  0  0  0  0  0  0  0
    1.0220   -1.0299    2.3301 H   0  0  0  0  0  0  0  0  0  0  0  0
    0.9348    0.6747    0.8437 H   0  0  0  0  0  0  0  0  0  0  0  0
    2.0319    2.0290   -0.7137 H   0  0  0  0  0  0  0  0  0  0  0  0
    2.9612    0.4639   -3.2012 H   0  0  0  0  0  0  0  0  0  0  0  0
    2.7782    2.2359   -3.1477 H   0  0  0  0  0  0  0  0  0  0  0  0
    6.1482    1.4369   -2.3610 H   0  0  0  0  0  0  0  0  0  0  0  0
    0.4764    0.5155   -2.7050 H   0  0  0  0  0  0  0  0  0  0  0  0
   -0.1130    1.0234   -1.2845 H   0  0  0  0  0  0  0  0  0  0  0  0
   -2.4604    2.1196    1.6453 H   0  0  0  0  0  0  0  0  0  0  0  0
   -3.0692    1.0714    2.9376 H   0  0  0  0  0  0  0  0  0  0  0  0
   -1.4296    0.8459    2.3026 H   0  0  0  0  0  0  0  0  0  0  0  0
  1  2  1  0
  2  3  1  0
  3  4  1  0
  4  5  2  0
  4  6  1  0
  6  7  1  0
  7  8  1  0
  8  9  1  0
  9 10  1  0
 10 11  2  0
 10 12  1  0
 12 13  1  0
 13 14  1  0
 14 15  2  0
 14 16  1  0
 12 17  1  0
  2 18  1  0
  1 19  1  0
  1 20  1  0
  1 21  1  0
  2 22  1  0
  3 23  1  0
  3 24  1  0
  7 25  1  0
  7 26  1  0
  8 27  1  0
  8 28  1  0
  9 29  1  0
 12 30  1  0
 13 31  1  0
 13 32  1  0
 16 33  1  0
 17 34  1  0
 17 35  1  0
 18 36  1  0
 18 37  1  0
 18 38  1  0
M  END
