
     RDKit          3D

 32 31  0  0  0  0  0  0  0  0999 V2000
    1.2952   -1.2203    1.9666 C   0  0  0  0  0  0  0  0  0  0  0  0
    1.2593   -0.8156    0.4941 C   0  0  0  0  0  0  0  0  0  0  0  0
   -0.0852   -0.3774    0.1243 N   0  0  0  0  0  0  0  0  0  0  0  0
   -1.0974   -1.2662   -0.1541 C   0  0  0  0  0  0  0  0  0  0  0  0
   -0.9345   -2.4849   -0.1870 O   0  0  0  0  0  0  0  0  0  0  0  0
   -2.4745   -0.6122   -0.4262 C   0  0  0  0  0  0  0  0  0  0  0  0
   -3.1791   -0.2873    0.8912 C   0  0  0  0  0  0  0  0  0  0  0  0
   -2.6437    0.9778    1.5003 C   0  0  0  0  0  0  0  0  0  0  0  0
   -1.6660    1.6125    1.1366 O   0  0  0  0  0  0  0  0  0  0  0  0
   -3.3612    1.3709    2.5694 O   0  0  0  0  0  0  0  0  0  0  0  0
   -3.3017   -1.5643   -1.2100 N   0  0  0  0  0  0  0  0  0  0  0  0
    2.2937    0.2866    0.2157 C   0  0  0  0  0  0  0  0  0  0  0  0
    2.3409    0.5407   -1.1984 O   0  0  0  0  0  0  0  0  0  0  0  0
    3.2066    1.5254   -1.5586 C   0  0  0  0  0  0  0  0  0  0  0  0
    3.9092    2.1666   -0.7903 O   0  0  0  0  0  0  0  0  0  0  0  0
    3.1790    1.7162   -3.0439 C   0  0  0  0  0  0  0  0  0  0  0  0
    0.5854   -2.0287    2.1717 H   0  0  0  0  0  0  0  0  0  0  0  0
    2.2929   -1.5694    2.2518 H   0  0  0  0  0  0  0  0  0  0  0  0
    1.0287   -0.3773    2.6140 H   0  0  0  0  0  0  0  0  0  0  0  0
    1.4967   -1.6907   -0.1234 H   0  0  0  0  0  0  0  0  0  0  0  0
   -0.3409    0.5921    0.3155 H   0  0  0  0  0  0  0  0  0  0  0  0
   -2.3282    0.2851   -1.0385 H   0  0  0  0  0  0  0  0  0  0  0  0
   -3.0591   -1.0999    1.6168 H   0  0  0  0  0  0  0  0  0  0  0  0
   -4.2491   -0.1261    0.7104 H   0  0  0  0  0  0  0  0  0  0  0  0
   -2.9321    2.1941    2.8838 H   0  0  0  0  0  0  0  0  0  0  0  0
   -3.2742   -2.4644   -0.7181 H   0  0  0  0  0  0  0  0  0  0  0  0
   -2.8031   -1.7653   -2.0803 H   0  0  0  0  0  0  0  0  0  0  0  0
    2.0171    1.2092    0.7412 H   0  0  0  0  0  0  0  0  0  0  0  0
    3.2858   -0.0405    0.5492 H   0  0  0  0  0  0  0  0  0  0  0  0
    3.4882    0.7938   -3.5419 H   0  0  0  0  0  0  0  0  0  0  0  0
    2.1747    2.0075   -3.3615 H   0  0  0  0  0  0  0  0  0  0  0  0
    3.8764    2.5122   -3.3201 H   0  0  0  0  0  0  0  0  0  0  0  0
  1  2  1  0
  2  3  1  0
  3  4  1  0
  4  5  2  0
  4  6  1  0
  6  7  1  0
  7  8  1  0
  8  9  2  0
  8 10  1  0
  6 11  1  0
  2 12  1  0
 12 13  1  0
 13 14  1  0
 14 15  2  0
 14 16  1  0
  1 17  1  0
  1 18  1  0
  1 19  1  0
  2 20  1  0
  3 21  1  0
  6 22  1  0
  7 23  1  0
  7 24  1  0
 10 25  1  0
 11 26  1  0
 11 27  1  0
 12 28  1  0
 12 29  1  0
 16 30  1  0
 16 31  1  0
 16 32  1  0
M  END
