
     RDKit          3D

 35 34  0  0  0  0  0  0  0  0999 V2000
    0.9486   -1.4436   -2.7446 C   0  0  0  0  0  0  0  0  0  0  0  0
    0.1825   -1.7562   -1.4615 C   0  0  0  0  0  0  0  0  0  0  0  0
   -0.9139   -0.8009   -1.3025 N   0  0  0  0  0  0  0  0  0  0  0  0
   -2.0831   -1.1581   -0.6570 C   0  0  0  0  0  0  0  0  0  0  0  0
   -2.3065   -2.3042   -0.2752 O   0  0  0  0  0  0  0  0  0  0  0  0
   -3.0775   -0.0035   -0.3852 C   0  0  0  0  0  0  0  0  0  0  0  0
   -2.9272    0.5103    1.0471 C   0  0  0  0  0  0  0  0  0  0  0  0
   -1.4871    0.7815    1.3740 C   0  0  0  0  0  0  0  0  0  0  0  0
   -0.7060    1.3897    0.6544 O   0  0  0  0  0  0  0  0  0  0  0  0
   -1.1069    0.2206    2.5350 O   0  0  0  0  0  0  0  0  0  0  0  0
   -2.9506    1.0846   -1.3846 N   0  0  0  0  0  0  0  0  0  0  0  0
    1.1005   -1.7680   -0.2212 C   0  0  0  0  0  0  0  0  0  0  0  0
    1.9241   -0.5835   -0.2072 O   0  0  0  0  0  0  0  0  0  0  0  0
    2.0045    0.1215    0.9532 C   0  0  0  0  0  0  0  0  0  0  0  0
    1.4342   -0.1586    2.0010 O   0  0  0  0  0  0  0  0  0  0  0  0
    2.9031    1.3175    0.7462 C   0  0  0  0  0  0  0  0  0  0  0  0
    2.9401    2.2192    1.9676 C   0  0  0  0  0  0  0  0  0  0  0  0
    0.2885   -1.5298   -3.6150 H   0  0  0  0  0  0  0  0  0  0  0  0
    1.7817   -2.1405   -2.8817 H   0  0  0  0  0  0  0  0  0  0  0  0
    1.3478   -0.4234   -2.7424 H   0  0  0  0  0  0  0  0  0  0  0  0
   -0.2583   -2.7556   -1.5592 H   0  0  0  0  0  0  0  0  0  0  0  0
   -0.6590    0.1806   -1.2521 H   0  0  0  0  0  0  0  0  0  0  0  0
   -4.0840   -0.4191   -0.5132 H   0  0  0  0  0  0  0  0  0  0  0  0
   -3.5096    1.4210    1.2223 H   0  0  0  0  0  0  0  0  0  0  0  0
   -3.3042   -0.2552    1.7367 H   0  0  0  0  0  0  0  0  0  0  0  0
   -0.1158    0.2418    2.5546 H   0  0  0  0  0  0  0  0  0  0  0  0
   -2.8331    0.6702   -2.3102 H   0  0  0  0  0  0  0  0  0  0  0  0
   -2.1149    1.6394   -1.1944 H   0  0  0  0  0  0  0  0  0  0  0  0
    1.7829   -2.6227   -0.2825 H   0  0  0  0  0  0  0  0  0  0  0  0
    0.5076   -1.8742    0.6937 H   0  0  0  0  0  0  0  0  0  0  0  0
    3.9131    0.9578    0.5241 H   0  0  0  0  0  0  0  0  0  0  0  0
    2.5286    1.8891   -0.1098 H   0  0  0  0  0  0  0  0  0  0  0  0
    3.3207    1.6816    2.8423 H   0  0  0  0  0  0  0  0  0  0  0  0
    3.5900    3.0806    1.7861 H   0  0  0  0  0  0  0  0  0  0  0  0
    1.9391    2.5900    2.2122 H   0  0  0  0  0  0  0  0  0  0  0  0
  1  2  1  0
  2  3  1  0
  3  4  1  0
  4  5  2  0
  4  6  1  0
  6  7  1  0
  7  8  1  0
  8  9  2  0
  8 10  1  0
  6 11  1  0
  2 12  1  0
 12 13  1  0
 13 14  1  0
 14 15  2  0
 14 16  1  0
 16 17  1  0
  1 18  1  0
  1 19  1  0
  1 20  1  0
  2 21  1  0
  3 22  1  0
  6 23  1  0
  7 24  1  0
  7 25  1  0
 10 26  1  0
 11 27  1  0
 11 28  1  0
 12 29  1  0
 12 30  1  0
 16 31  1  0
 16 32  1  0
 17 33  1  0
 17 34  1  0
 17 35  1  0
M  END
