
     RDKit          3D

 23 24  0  0  0  0  0  0  0  0999 V2000
    5.2009    0.7830    0.3360 Br  0  0  0  0  0  0  0  0  0  0  0  0
    3.2767    0.5974    0.5697 C   0  0  0  0  0  0  0  0  0  0  0  0
    2.6270    0.2403   -0.7559 C   0  0  0  0  0  0  0  0  0  0  0  0
    1.1777    0.1018   -0.5970 N   0  0  0  0  0  0  0  0  0  0  0  0
    0.2383    1.1505   -0.5031 C   0  0  0  0  0  0  0  0  0  0  0  0
    0.4975    2.3362   -0.5675 O   0  0  0  0  0  0  0  0  0  0  0  0
   -1.1052    0.5770   -0.2991 C   0  0  0  0  0  0  0  0  0  0  0  0
   -1.1006   -0.8102   -0.2258 C   0  0  0  0  0  0  0  0  0  0  0  0
    0.5150   -1.4295   -0.3993 S   0  0  0  0  0  6  0  0  0  0  0  0
    0.6079   -2.1507   -1.6452 O   0  0  0  0  0  0  0  0  0  0  0  0
    0.9477   -1.9617    0.8705 O   0  0  0  0  0  0  0  0  0  0  0  0
   -2.2520   -1.5525   -0.0387 C   0  0  0  0  0  0  0  0  0  0  0  0
   -3.4523   -0.8484    0.0798 C   0  0  0  0  0  0  0  0  0  0  0  0
   -3.4724    0.5579    0.0095 C   0  0  0  0  0  0  0  0  0  0  0  0
   -2.2914    1.2839   -0.1814 C   0  0  0  0  0  0  0  0  0  0  0  0
    3.1264   -0.1784    1.3253 H   0  0  0  0  0  0  0  0  0  0  0  0
    2.9148    1.5518    0.9624 H   0  0  0  0  0  0  0  0  0  0  0  0
    3.0521   -0.6876   -1.1572 H   0  0  0  0  0  0  0  0  0  0  0  0
    2.8276    1.0120   -1.5091 H   0  0  0  0  0  0  0  0  0  0  0  0
   -2.2259   -2.6366    0.0143 H   0  0  0  0  0  0  0  0  0  0  0  0
   -4.3849   -1.3907    0.2283 H   0  0  0  0  0  0  0  0  0  0  0  0
   -4.4203    1.0854    0.1047 H   0  0  0  0  0  0  0  0  0  0  0  0
   -2.3047    2.3690   -0.2364 H   0  0  0  0  0  0  0  0  0  0  0  0
  1  2  1  0
  2  3  1  0
  3  4  1  0
  4  5  1  0
  5  6  2  0
  5  7  1  0
  7  8  2  0
  8  9  1  0
  9 10  2  0
  9 11  2  0
  8 12  1  0
 12 13  2  0
 13 14  1  0
 14 15  2  0
  9  4  1  0
 15  7  1  0
  2 16  1  0
  2 17  1  0
  3 18  1  0
  3 19  1  0
 12 20  1  0
 13 21  1  0
 14 22  1  0
 15 23  1  0
M  END
