
     RDKit          3D

 33 32  0  0  0  0  0  0  0  0999 V2000
   -0.1920    1.5946    3.0389 C   0  0  0  0  0  0  0  0  0  0  0  0
    0.3442    0.8848    1.8001 C   0  0  0  0  0  0  0  0  0  0  0  0
   -0.5608    1.1172    0.6738 N   0  0  0  0  0  0  0  0  0  0  0  0
   -0.1019    1.1728   -0.6249 C   0  0  0  0  0  0  0  0  0  0  0  0
    1.0887    1.2265   -0.9276 O   0  0  0  0  0  0  0  0  0  0  0  0
   -1.2164    1.1560   -1.6972 C   0  0  0  0  0  0  0  0  0  0  0  0
   -1.5683   -0.2880   -2.0543 C   0  0  0  0  0  0  0  0  0  0  0  0
   -2.3822   -0.9375   -0.9709 C   0  0  0  0  0  0  0  0  0  0  0  0
   -2.7565   -0.4298    0.0746 O   0  0  0  0  0  0  0  0  0  0  0  0
   -2.6830   -2.2174   -1.2621 O   0  0  0  0  0  0  0  0  0  0  0  0
   -0.7231    1.8627   -2.9054 N   0  0  0  0  0  0  0  0  0  0  0  0
    0.4997   -0.6260    2.0739 C   0  0  0  0  0  0  0  0  0  0  0  0
    1.0583   -1.3163    0.9435 O   0  0  0  0  0  0  0  0  0  0  0  0
    2.4051   -1.2176    0.8243 C   0  0  0  0  0  0  0  0  0  0  0  0
    3.1580   -0.6644    1.6122 O   0  0  0  0  0  0  0  0  0  0  0  0
    2.8967   -1.8884   -0.3982 C   0  0  0  0  0  0  0  0  0  0  0  0
    2.1395   -2.5878   -1.2541 C   0  0  0  0  0  0  0  0  0  0  0  0
   -0.2990    2.6690    2.8535 H   0  0  0  0  0  0  0  0  0  0  0  0
    0.4854    1.4633    3.8889 H   0  0  0  0  0  0  0  0  0  0  0  0
   -1.1777    1.2098    3.3233 H   0  0  0  0  0  0  0  0  0  0  0  0
    1.3186    1.3132    1.5408 H   0  0  0  0  0  0  0  0  0  0  0  0
   -1.5345    0.8416    0.8031 H   0  0  0  0  0  0  0  0  0  0  0  0
   -2.0896    1.7018   -1.3218 H   0  0  0  0  0  0  0  0  0  0  0  0
   -0.6615   -0.8838   -2.2104 H   0  0  0  0  0  0  0  0  0  0  0  0
   -2.1725   -0.3119   -2.9692 H   0  0  0  0  0  0  0  0  0  0  0  0
   -3.2147   -2.5381   -0.5039 H   0  0  0  0  0  0  0  0  0  0  0  0
    0.1944    1.4630   -3.1335 H   0  0  0  0  0  0  0  0  0  0  0  0
   -0.4947    2.8221   -2.6345 H   0  0  0  0  0  0  0  0  0  0  0  0
   -0.4827   -1.0771    2.2566 H   0  0  0  0  0  0  0  0  0  0  0  0
    1.1039   -0.8122    2.9705 H   0  0  0  0  0  0  0  0  0  0  0  0
    3.9619   -1.7742   -0.5684 H   0  0  0  0  0  0  0  0  0  0  0  0
    1.0722   -2.7187   -1.1097 H   0  0  0  0  0  0  0  0  0  0  0  0
    2.5843   -3.0456   -2.1317 H   0  0  0  0  0  0  0  0  0  0  0  0
  1  2  1  0
  2  3  1  0
  3  4  1  0
  4  5  2  0
  4  6  1  0
  6  7  1  0
  7  8  1  0
  8  9  2  0
  8 10  1  0
  6 11  1  0
  2 12  1  0
 12 13  1  0
 13 14  1  0
 14 15  2  0
 14 16  1  0
 16 17  2  0
  1 18  1  0
  1 19  1  0
  1 20  1  0
  2 21  1  0
  3 22  1  0
  6 23  1  0
  7 24  1  0
  7 25  1  0
 10 26  1  0
 11 27  1  0
 11 28  1  0
 12 29  1  0
 12 30  1  0
 16 31  1  0
 17 32  1  0
 17 33  1  0
M  END
