
     RDKit          3D

 38 37  0  0  0  0  0  0  0  0999 V2000
    4.8608    1.2404    2.5383 C   0  0  0  0  0  0  0  0  0  0  0  0
    4.9267   -0.0716    1.7689 C   0  0  0  0  0  0  0  0  0  0  0  0
    4.0897   -0.0460    0.4917 C   0  0  0  0  0  0  0  0  0  0  0  0
    2.6014   -0.0791    0.7560 C   0  0  0  0  0  0  0  0  0  0  0  0
    2.0763   -0.3923    1.8142 O   0  0  0  0  0  0  0  0  0  0  0  0
    1.9337    0.2553   -0.3834 O   0  0  0  0  0  0  0  0  0  0  0  0
    0.4984    0.2910   -0.2985 C   0  0  0  0  0  0  0  0  0  0  0  0
   -0.1343   -0.9327   -0.9887 C   0  0  0  0  0  0  0  0  0  0  0  0
   -1.5921   -0.8462   -0.9906 N   0  0  0  0  0  0  0  0  0  0  0  0
   -2.2699   -0.0033   -1.8418 C   0  0  0  0  0  0  0  0  0  0  0  0
   -1.7106    0.6611   -2.7128 O   0  0  0  0  0  0  0  0  0  0  0  0
   -3.8011    0.0521   -1.6182 C   0  0  0  0  0  0  0  0  0  0  0  0
   -4.1395    1.0499   -0.5101 C   0  0  0  0  0  0  0  0  0  0  0  0
   -3.8752    0.4663    0.8488 C   0  0  0  0  0  0  0  0  0  0  0  0
   -3.3478   -0.6066    1.0960 O   0  0  0  0  0  0  0  0  0  0  0  0
   -4.2685    1.2862    1.8409 O   0  0  0  0  0  0  0  0  0  0  0  0
   -4.4467    0.4790   -2.8846 N   0  0  0  0  0  0  0  0  0  0  0  0
    0.2960   -2.2491   -0.3449 C   0  0  0  0  0  0  0  0  0  0  0  0
    5.2078    2.0747    1.9202 H   0  0  0  0  0  0  0  0  0  0  0  0
    3.8420    1.4607    2.8705 H   0  0  0  0  0  0  0  0  0  0  0  0
    5.5000    1.1889    3.4254 H   0  0  0  0  0  0  0  0  0  0  0  0
    4.6081   -0.8927    2.4214 H   0  0  0  0  0  0  0  0  0  0  0  0
    5.9723   -0.2630    1.5000 H   0  0  0  0  0  0  0  0  0  0  0  0
    4.3302    0.8517   -0.0889 H   0  0  0  0  0  0  0  0  0  0  0  0
    4.3302   -0.9267   -0.1145 H   0  0  0  0  0  0  0  0  0  0  0  0
    0.1837    1.2095   -0.8066 H   0  0  0  0  0  0  0  0  0  0  0  0
    0.1444    0.3843    0.7357 H   0  0  0  0  0  0  0  0  0  0  0  0
    0.2019   -0.9481   -2.0332 H   0  0  0  0  0  0  0  0  0  0  0  0
   -2.0856   -1.1695   -0.1565 H   0  0  0  0  0  0  0  0  0  0  0  0
   -4.1647   -0.9540   -1.3796 H   0  0  0  0  0  0  0  0  0  0  0  0
   -5.2063    1.3026   -0.5486 H   0  0  0  0  0  0  0  0  0  0  0  0
   -3.5511    1.9690   -0.6129 H   0  0  0  0  0  0  0  0  0  0  0  0
   -4.0443    0.8161    2.6717 H   0  0  0  0  0  0  0  0  0  0  0  0
   -4.2068   -0.2068   -3.6046 H   0  0  0  0  0  0  0  0  0  0  0  0
   -3.9627    1.3263   -3.2019 H   0  0  0  0  0  0  0  0  0  0  0  0
   -0.1928   -3.0974   -0.8371 H   0  0  0  0  0  0  0  0  0  0  0  0
    1.3770   -2.3990   -0.4247 H   0  0  0  0  0  0  0  0  0  0  0  0
    0.0193   -2.2806    0.7146 H   0  0  0  0  0  0  0  0  0  0  0  0
  1  2  1  0
  2  3  1  0
  3  4  1  0
  4  5  2  0
  4  6  1  0
  6  7  1  0
  7  8  1  0
  8  9  1  0
  9 10  1  0
 10 11  2  0
 10 12  1  0
 12 13  1  0
 13 14  1  0
 14 15  2  0
 14 16  1  0
 12 17  1  0
  8 18  1  0
  1 19  1  0
  1 20  1  0
  1 21  1  0
  2 22  1  0
  2 23  1  0
  3 24  1  0
  3 25  1  0
  7 26  1  0
  7 27  1  0
  8 28  1  0
  9 29  1  0
 12 30  1  0
 13 31  1  0
 13 32  1  0
 16 33  1  0
 17 34  1  0
 17 35  1  0
 18 36  1  0
 18 37  1  0
 18 38  1  0
M  END
