
     RDKit          3D

 38 37  0  0  0  0  0  0  0  0999 V2000
   -0.3381   -3.2957    0.8889 C   0  0  0  0  0  0  0  0  0  0  0  0
   -0.5976   -2.0272    0.0788 C   0  0  0  0  0  0  0  0  0  0  0  0
    0.2287   -0.9342    0.5725 N   0  0  0  0  0  0  0  0  0  0  0  0
    1.5625   -0.7923    0.2586 C   0  0  0  0  0  0  0  0  0  0  0  0
    2.1639   -1.5438   -0.5023 O   0  0  0  0  0  0  0  0  0  0  0  0
    2.2135    0.4244    0.9565 C   0  0  0  0  0  0  0  0  0  0  0  0
    3.7091    0.4936    0.6549 C   0  0  0  0  0  0  0  0  0  0  0  0
    3.9365    0.8805   -0.7803 C   0  0  0  0  0  0  0  0  0  0  0  0
    3.1729    1.4940   -1.5067 O   0  0  0  0  0  0  0  0  0  0  0  0
    5.1642    0.5311   -1.2123 O   0  0  0  0  0  0  0  0  0  0  0  0
    1.9652    0.3126    2.4175 N   0  0  0  0  0  0  0  0  0  0  0  0
   -2.0931   -1.6639    0.1182 C   0  0  0  0  0  0  0  0  0  0  0  0
   -2.3764   -0.5627   -0.7654 O   0  0  0  0  0  0  0  0  0  0  0  0
   -2.2465    0.6813   -0.2222 C   0  0  0  0  0  0  0  0  0  0  0  0
   -1.9682    0.9121    0.9477 O   0  0  0  0  0  0  0  0  0  0  0  0
   -2.5095    1.7367   -1.2787 C   0  0  0  0  0  0  0  0  0  0  0  0
   -1.7500    3.0196   -0.9529 C   0  0  0  0  0  0  0  0  0  0  0  0
   -4.0074    1.9916   -1.3832 C   0  0  0  0  0  0  0  0  0  0  0  0
    0.7158   -3.5893    0.8370 H   0  0  0  0  0  0  0  0  0  0  0  0
   -0.9375   -4.1303    0.5109 H   0  0  0  0  0  0  0  0  0  0  0  0
   -0.5859   -3.1466    1.9457 H   0  0  0  0  0  0  0  0  0  0  0  0
   -0.3046   -2.2041   -0.9634 H   0  0  0  0  0  0  0  0  0  0  0  0
   -0.1180   -0.3481    1.3335 H   0  0  0  0  0  0  0  0  0  0  0  0
    1.7003    1.3236    0.5947 H   0  0  0  0  0  0  0  0  0  0  0  0
    4.1879   -0.4741    0.8462 H   0  0  0  0  0  0  0  0  0  0  0  0
    4.1976    1.2530    1.2762 H   0  0  0  0  0  0  0  0  0  0  0  0
    5.1746    0.8091   -2.1522 H   0  0  0  0  0  0  0  0  0  0  0  0
    2.4422   -0.5185    2.7706 H   0  0  0  0  0  0  0  0  0  0  0  0
    2.3925    1.1076    2.8919 H   0  0  0  0  0  0  0  0  0  0  0  0
   -2.4349   -1.4471    1.1380 H   0  0  0  0  0  0  0  0  0  0  0  0
   -2.6896   -2.5094   -0.2425 H   0  0  0  0  0  0  0  0  0  0  0  0
   -2.1302    1.3615   -2.2373 H   0  0  0  0  0  0  0  0  0  0  0  0
   -0.6773    2.8207   -0.8507 H   0  0  0  0  0  0  0  0  0  0  0  0
   -1.8834    3.7623   -1.7463 H   0  0  0  0  0  0  0  0  0  0  0  0
   -2.0948    3.4628   -0.0121 H   0  0  0  0  0  0  0  0  0  0  0  0
   -4.5435    1.0721   -1.6421 H   0  0  0  0  0  0  0  0  0  0  0  0
   -4.4166    2.3528   -0.4331 H   0  0  0  0  0  0  0  0  0  0  0  0
   -4.2241    2.7377   -2.1546 H   0  0  0  0  0  0  0  0  0  0  0  0
  1  2  1  0
  2  3  1  0
  3  4  1  0
  4  5  2  0
  4  6  1  0
  6  7  1  0
  7  8  1  0
  8  9  2  0
  8 10  1  0
  6 11  1  0
  2 12  1  0
 12 13  1  0
 13 14  1  0
 14 15  2  0
 14 16  1  0
 16 17  1  0
 16 18  1  0
  1 19  1  0
  1 20  1  0
  1 21  1  0
  2 22  1  0
  3 23  1  0
  6 24  1  0
  7 25  1  0
  7 26  1  0
 10 27  1  0
 11 28  1  0
 11 29  1  0
 12 30  1  0
 12 31  1  0
 16 32  1  0
 17 33  1  0
 17 34  1  0
 17 35  1  0
 18 36  1  0
 18 37  1  0
 18 38  1  0
M  END
