
     RDKit          3D

 36 35  0  0  0  0  0  0  0  0999 V2000
   -1.8823   -3.1785   -1.0108 C   0  0  0  0  0  0  0  0  0  0  0  0
   -0.9305   -1.9863   -1.0450 C   0  0  0  0  0  0  0  0  0  0  0  0
   -1.6295   -0.8011   -0.5485 N   0  0  0  0  0  0  0  0  0  0  0  0
   -1.4225    0.4596   -1.0659 C   0  0  0  0  0  0  0  0  0  0  0  0
   -0.7319    0.6868   -2.0571 O   0  0  0  0  0  0  0  0  0  0  0  0
   -2.1524    1.5896   -0.2944 C   0  0  0  0  0  0  0  0  0  0  0  0
   -1.2539    2.1575    0.8034 C   0  0  0  0  0  0  0  0  0  0  0  0
   -0.9335    1.1036    1.8241 C   0  0  0  0  0  0  0  0  0  0  0  0
   -1.5806    0.0909    2.0437 O   0  0  0  0  0  0  0  0  0  0  0  0
    0.2187    1.3605    2.4686 O   0  0  0  0  0  0  0  0  0  0  0  0
   -2.5226    2.6629   -1.2487 N   0  0  0  0  0  0  0  0  0  0  0  0
    0.3297   -2.2849   -0.2098 C   0  0  0  0  0  0  0  0  0  0  0  0
    1.3262   -1.2805   -0.4620 O   0  0  0  0  0  0  0  0  0  0  0  0
    1.8601   -0.6493    0.6086 C   0  0  0  0  0  0  0  0  0  0  0  0
    1.5923   -0.8675    1.7837 O   0  0  0  0  0  0  0  0  0  0  0  0
    2.8532    0.3799    0.1839 C   0  0  0  0  0  0  0  0  0  0  0  0
    2.9391    0.8096   -1.0865 C   0  0  0  0  0  0  0  0  0  0  0  0
    3.7286    0.9165    1.2750 C   0  0  0  0  0  0  0  0  0  0  0  0
   -2.7777   -2.9769   -1.6089 H   0  0  0  0  0  0  0  0  0  0  0  0
   -2.2106   -3.3967    0.0115 H   0  0  0  0  0  0  0  0  0  0  0  0
   -1.4011   -4.0754   -1.4146 H   0  0  0  0  0  0  0  0  0  0  0  0
   -0.6328   -1.7948   -2.0827 H   0  0  0  0  0  0  0  0  0  0  0  0
   -1.9962   -0.8499    0.4032 H   0  0  0  0  0  0  0  0  0  0  0  0
   -3.0796    1.1885    0.1317 H   0  0  0  0  0  0  0  0  0  0  0  0
   -1.7432    2.9901    1.3206 H   0  0  0  0  0  0  0  0  0  0  0  0
   -0.3129    2.5158    0.3677 H   0  0  0  0  0  0  0  0  0  0  0  0
    0.4896    0.5024    2.8749 H   0  0  0  0  0  0  0  0  0  0  0  0
   -3.1270    2.2526   -1.9639 H   0  0  0  0  0  0  0  0  0  0  0  0
   -1.6742    2.9100   -1.7696 H   0  0  0  0  0  0  0  0  0  0  0  0
    0.0722   -2.3632    0.8527 H   0  0  0  0  0  0  0  0  0  0  0  0
    0.7651   -3.2411   -0.5203 H   0  0  0  0  0  0  0  0  0  0  0  0
    3.6603    1.5662   -1.3787 H   0  0  0  0  0  0  0  0  0  0  0  0
    2.2861    0.4374   -1.8719 H   0  0  0  0  0  0  0  0  0  0  0  0
    4.2933    0.1051    1.7461 H   0  0  0  0  0  0  0  0  0  0  0  0
    4.4526    1.6461    0.8967 H   0  0  0  0  0  0  0  0  0  0  0  0
    3.1280    1.4146    2.0432 H   0  0  0  0  0  0  0  0  0  0  0  0
  1  2  1  0
  2  3  1  0
  3  4  1  0
  4  5  2  0
  4  6  1  0
  6  7  1  0
  7  8  1  0
  8  9  2  0
  8 10  1  0
  6 11  1  0
  2 12  1  0
 12 13  1  0
 13 14  1  0
 14 15  2  0
 14 16  1  0
 16 17  2  0
 16 18  1  0
  1 19  1  0
  1 20  1  0
  1 21  1  0
  2 22  1  0
  3 23  1  0
  6 24  1  0
  7 25  1  0
  7 26  1  0
 10 27  1  0
 11 28  1  0
 11 29  1  0
 12 30  1  0
 12 31  1  0
 17 32  1  0
 17 33  1  0
 18 34  1  0
 18 35  1  0
 18 36  1  0
M  END
