
     RDKit          3D

 36 36  0  0  0  0  0  0  0  0999 V2000
    0.6180   -2.9622   -1.4520 C   0  0  0  0  0  0  0  0  0  0  0  0
    0.2600   -2.4186   -0.0709 C   0  0  0  0  0  0  0  0  0  0  0  0
   -1.0247   -1.7243   -0.1372 N   0  0  0  0  0  0  0  0  0  0  0  0
   -1.7737   -1.5030    0.9970 C   0  0  0  0  0  0  0  0  0  0  0  0
   -1.5077   -2.0091    2.0860 O   0  0  0  0  0  0  0  0  0  0  0  0
   -2.9793   -0.5535    0.8017 C   0  0  0  0  0  0  0  0  0  0  0  0
   -2.5318    0.8991    0.9708 C   0  0  0  0  0  0  0  0  0  0  0  0
   -1.8211    1.3990   -0.2547 C   0  0  0  0  0  0  0  0  0  0  0  0
   -1.5401    0.7588   -1.2555 O   0  0  0  0  0  0  0  0  0  0  0  0
   -1.4805    2.6974   -0.1514 O   0  0  0  0  0  0  0  0  0  0  0  0
   -4.0069   -0.8798    1.8215 N   0  0  0  0  0  0  0  0  0  0  0  0
    1.3595   -1.4895    0.4772 C   0  0  0  0  0  0  0  0  0  0  0  0
    1.5128   -0.3670   -0.4091 O   0  0  0  0  0  0  0  0  0  0  0  0
    2.3516    0.5965    0.0467 C   0  0  0  0  0  0  0  0  0  0  0  0
    2.9775    0.5683    1.0956 O   0  0  0  0  0  0  0  0  0  0  0  0
    2.4083    1.7416   -0.8977 C   0  0  0  0  0  0  0  0  0  0  0  0
    3.6106    2.6554   -0.9287 C   0  0  0  0  0  0  0  0  0  0  0  0
    2.3061    3.1571   -0.3790 C   0  0  0  0  0  0  0  0  0  0  0  0
   -0.1505   -3.6609   -1.8007 H   0  0  0  0  0  0  0  0  0  0  0  0
    0.6919   -2.1619   -2.1965 H   0  0  0  0  0  0  0  0  0  0  0  0
    1.5735   -3.4959   -1.4258 H   0  0  0  0  0  0  0  0  0  0  0  0
    0.1508   -3.2635    0.6199 H   0  0  0  0  0  0  0  0  0  0  0  0
   -1.1391   -1.0558   -0.9005 H   0  0  0  0  0  0  0  0  0  0  0  0
   -3.4197   -0.7283   -0.1866 H   0  0  0  0  0  0  0  0  0  0  0  0
   -1.8592    1.0070    1.8297 H   0  0  0  0  0  0  0  0  0  0  0  0
   -3.4063    1.5444    1.1189 H   0  0  0  0  0  0  0  0  0  0  0  0
   -1.0417    2.9176   -0.9990 H   0  0  0  0  0  0  0  0  0  0  0  0
   -4.2808   -1.8562    1.6889 H   0  0  0  0  0  0  0  0  0  0  0  0
   -3.5360   -0.8925    2.7332 H   0  0  0  0  0  0  0  0  0  0  0  0
    1.0859   -1.1313    1.4769 H   0  0  0  0  0  0  0  0  0  0  0  0
    2.3113   -2.0301    0.5366 H   0  0  0  0  0  0  0  0  0  0  0  0
    1.9326    1.5478   -1.8550 H   0  0  0  0  0  0  0  0  0  0  0  0
    4.4177    2.4720   -0.2268 H   0  0  0  0  0  0  0  0  0  0  0  0
    3.9384    3.0305   -1.8910 H   0  0  0  0  0  0  0  0  0  0  0  0
    2.2381    3.3104    0.6932 H   0  0  0  0  0  0  0  0  0  0  0  0
    1.7548    3.8806   -0.9671 H   0  0  0  0  0  0  0  0  0  0  0  0
  1  2  1  0
  2  3  1  0
  3  4  1  0
  4  5  2  0
  4  6  1  0
  6  7  1  0
  7  8  1  0
  8  9  2  0
  8 10  1  0
  6 11  1  0
  2 12  1  0
 12 13  1  0
 13 14  1  0
 14 15  2  0
 14 16  1  0
 16 17  1  0
 17 18  1  0
 18 16  1  0
  1 19  1  0
  1 20  1  0
  1 21  1  0
  2 22  1  0
  3 23  1  0
  6 24  1  0
  7 25  1  0
  7 26  1  0
 10 27  1  0
 11 28  1  0
 11 29  1  0
 12 30  1  0
 12 31  1  0
 16 32  1  0
 17 33  1  0
 17 34  1  0
 18 35  1  0
 18 36  1  0
M  END
