
     RDKit          3D

 41 40  0  0  0  0  0  0  0  0999 V2000
   -6.1594    2.1805   -0.9673 C   0  0  0  0  0  0  0  0  0  0  0  0
   -4.9254    1.3044   -1.1177 C   0  0  0  0  0  0  0  0  0  0  0  0
   -4.9734    0.1047   -0.1682 C   0  0  0  0  0  0  0  0  0  0  0  0
   -3.7569   -0.8082   -0.3192 C   0  0  0  0  0  0  0  0  0  0  0  0
   -2.4892   -0.2055    0.2419 C   0  0  0  0  0  0  0  0  0  0  0  0
   -2.4302    0.7528    0.9984 O   0  0  0  0  0  0  0  0  0  0  0  0
   -1.4136   -0.9165   -0.2009 O   0  0  0  0  0  0  0  0  0  0  0  0
   -0.1521   -0.4340    0.2826 C   0  0  0  0  0  0  0  0  0  0  0  0
    0.9874   -1.2954   -0.2840 C   0  0  0  0  0  0  0  0  0  0  0  0
    2.2860   -0.7392    0.0810 N   0  0  0  0  0  0  0  0  0  0  0  0
    3.4107   -0.9236   -0.6898 C   0  0  0  0  0  0  0  0  0  0  0  0
    3.3881   -1.4885   -1.7822 O   0  0  0  0  0  0  0  0  0  0  0  0
    4.7205   -0.3638   -0.0749 C   0  0  0  0  0  0  0  0  0  0  0  0
    4.7084    1.1655   -0.0537 C   0  0  0  0  0  0  0  0  0  0  0  0
    3.9434    1.6885    1.1299 C   0  0  0  0  0  0  0  0  0  0  0  0
    3.2662    1.0386    1.9113 O   0  0  0  0  0  0  0  0  0  0  0  0
    4.0473    3.0249    1.2532 O   0  0  0  0  0  0  0  0  0  0  0  0
    5.8661   -0.8357   -0.8946 N   0  0  0  0  0  0  0  0  0  0  0  0
    0.8817   -2.7455    0.1914 C   0  0  0  0  0  0  0  0  0  0  0  0
   -6.2394    2.5734    0.0513 H   0  0  0  0  0  0  0  0  0  0  0  0
   -6.1074    3.0297   -1.6559 H   0  0  0  0  0  0  0  0  0  0  0  0
   -7.0707    1.6170   -1.1914 H   0  0  0  0  0  0  0  0  0  0  0  0
   -4.0338    1.9103   -0.9228 H   0  0  0  0  0  0  0  0  0  0  0  0
   -4.8586    0.9549   -2.1546 H   0  0  0  0  0  0  0  0  0  0  0  0
   -5.0597    0.4536    0.8679 H   0  0  0  0  0  0  0  0  0  0  0  0
   -5.8753   -0.4817   -0.3832 H   0  0  0  0  0  0  0  0  0  0  0  0
   -3.9385   -1.7425    0.2240 H   0  0  0  0  0  0  0  0  0  0  0  0
   -3.6026   -1.0461   -1.3777 H   0  0  0  0  0  0  0  0  0  0  0  0
   -0.1400   -0.4652    1.3795 H   0  0  0  0  0  0  0  0  0  0  0  0
   -0.0176    0.6062   -0.0401 H   0  0  0  0  0  0  0  0  0  0  0  0
    0.9087   -1.3017   -1.3784 H   0  0  0  0  0  0  0  0  0  0  0  0
    2.4111   -0.3953    1.0343 H   0  0  0  0  0  0  0  0  0  0  0  0
    4.8374   -0.7840    0.9306 H   0  0  0  0  0  0  0  0  0  0  0  0
    4.2597    1.5718   -0.9673 H   0  0  0  0  0  0  0  0  0  0  0  0
    5.7333    1.5458    0.0397 H   0  0  0  0  0  0  0  0  0  0  0  0
    3.5124    3.2571    2.0412 H   0  0  0  0  0  0  0  0  0  0  0  0
    5.8312   -1.8587   -0.9109 H   0  0  0  0  0  0  0  0  0  0  0  0
    5.6665   -0.5898   -1.8699 H   0  0  0  0  0  0  0  0  0  0  0  0
   -0.0690   -3.1954   -0.1119 H   0  0  0  0  0  0  0  0  0  0  0  0
    0.9578   -2.8084    1.2826 H   0  0  0  0  0  0  0  0  0  0  0  0
    1.6887   -3.3551   -0.2295 H   0  0  0  0  0  0  0  0  0  0  0  0
  1  2  1  0
  2  3  1  0
  3  4  1  0
  4  5  1  0
  5  6  2  0
  5  7  1  0
  7  8  1  0
  8  9  1  0
  9 10  1  0
 10 11  1  0
 11 12  2  0
 11 13  1  0
 13 14  1  0
 14 15  1  0
 15 16  2  0
 15 17  1  0
 13 18  1  0
  9 19  1  0
  1 20  1  0
  1 21  1  0
  1 22  1  0
  2 23  1  0
  2 24  1  0
  3 25  1  0
  3 26  1  0
  4 27  1  0
  4 28  1  0
  8 29  1  0
  8 30  1  0
  9 31  1  0
 10 32  1  0
 13 33  1  0
 14 34  1  0
 14 35  1  0
 17 36  1  0
 18 37  1  0
 18 38  1  0
 19 39  1  0
 19 40  1  0
 19 41  1  0
M  END
