
     RDKit          3D

 41 40  0  0  0  0  0  0  0  0999 V2000
   -0.0360   -2.6125   -0.2928 C   0  0  0  0  0  0  0  0  0  0  0  0
   -0.2659   -1.6074    0.8338 C   0  0  0  0  0  0  0  0  0  0  0  0
   -1.1035   -0.5063    0.3735 N   0  0  0  0  0  0  0  0  0  0  0  0
   -2.4789   -0.5792    0.3394 C   0  0  0  0  0  0  0  0  0  0  0  0
   -3.1058   -1.5918    0.6407 O   0  0  0  0  0  0  0  0  0  0  0  0
   -3.1438    0.7207   -0.1716 C   0  0  0  0  0  0  0  0  0  0  0  0
   -4.6394    0.7333    0.1446 C   0  0  0  0  0  0  0  0  0  0  0  0
   -4.8477    0.8811    1.6267 C   0  0  0  0  0  0  0  0  0  0  0  0
   -3.9953    1.0596    2.4811 O   0  0  0  0  0  0  0  0  0  0  0  0
   -6.1509    0.8257    1.9655 O   0  0  0  0  0  0  0  0  0  0  0  0
   -2.9275    0.8069   -1.6391 N   0  0  0  0  0  0  0  0  0  0  0  0
    1.0608   -1.0974    1.4353 C   0  0  0  0  0  0  0  0  0  0  0  0
    2.0466   -0.7305    0.4513 O   0  0  0  0  0  0  0  0  0  0  0  0
    1.8864    0.4638   -0.1754 C   0  0  0  0  0  0  0  0  0  0  0  0
    0.9319    1.2150   -0.0164 O   0  0  0  0  0  0  0  0  0  0  0  0
    3.0257    0.7442   -1.1388 C   0  0  0  0  0  0  0  0  0  0  0  0
    4.3956    0.7095   -0.4491 C   0  0  0  0  0  0  0  0  0  0  0  0
    4.5330    1.7677    0.6380 C   0  0  0  0  0  0  0  0  0  0  0  0
    2.9626   -0.2502   -2.2968 C   0  0  0  0  0  0  0  0  0  0  0  0
   -0.9858   -3.0284   -0.6484 H   0  0  0  0  0  0  0  0  0  0  0  0
    0.4537   -2.1453   -1.1553 H   0  0  0  0  0  0  0  0  0  0  0  0
    0.5881   -3.4448    0.0486 H   0  0  0  0  0  0  0  0  0  0  0  0
   -0.8186   -2.1109    1.6363 H   0  0  0  0  0  0  0  0  0  0  0  0
   -0.6531    0.3901    0.1844 H   0  0  0  0  0  0  0  0  0  0  0  0
   -2.6475    1.5772    0.3027 H   0  0  0  0  0  0  0  0  0  0  0  0
   -5.1204    1.5912   -0.3390 H   0  0  0  0  0  0  0  0  0  0  0  0
   -5.1311   -0.1870   -0.1917 H   0  0  0  0  0  0  0  0  0  0  0  0
   -6.1502    0.9285    2.9412 H   0  0  0  0  0  0  0  0  0  0  0  0
   -1.9248    0.7332   -1.8192 H   0  0  0  0  0  0  0  0  0  0  0  0
   -3.3471   -0.0152   -2.0744 H   0  0  0  0  0  0  0  0  0  0  0  0
    1.5139   -1.9101    2.0171 H   0  0  0  0  0  0  0  0  0  0  0  0
    0.8964   -0.2646    2.1308 H   0  0  0  0  0  0  0  0  0  0  0  0
    2.8632    1.7492   -1.5470 H   0  0  0  0  0  0  0  0  0  0  0  0
    4.5825   -0.2765   -0.0085 H   0  0  0  0  0  0  0  0  0  0  0  0
    5.1810    0.8768   -1.1954 H   0  0  0  0  0  0  0  0  0  0  0  0
    4.3774    2.7727    0.2305 H   0  0  0  0  0  0  0  0  0  0  0  0
    5.5347    1.7304    1.0785 H   0  0  0  0  0  0  0  0  0  0  0  0
    3.8095    1.5994    1.4432 H   0  0  0  0  0  0  0  0  0  0  0  0
    1.9646   -0.2548   -2.7560 H   0  0  0  0  0  0  0  0  0  0  0  0
    3.6926    0.0051   -3.0742 H   0  0  0  0  0  0  0  0  0  0  0  0
    3.1729   -1.2686   -1.9537 H   0  0  0  0  0  0  0  0  0  0  0  0
  1  2  1  0
  2  3  1  0
  3  4  1  0
  4  5  2  0
  4  6  1  0
  6  7  1  0
  7  8  1  0
  8  9  2  0
  8 10  1  0
  6 11  1  0
  2 12  1  0
 12 13  1  0
 13 14  1  0
 14 15  2  0
 14 16  1  0
 16 17  1  0
 17 18  1  0
 16 19  1  0
  1 20  1  0
  1 21  1  0
  1 22  1  0
  2 23  1  0
  3 24  1  0
  6 25  1  0
  7 26  1  0
  7 27  1  0
 10 28  1  0
 11 29  1  0
 11 30  1  0
 12 31  1  0
 12 32  1  0
 16 33  1  0
 17 34  1  0
 17 35  1  0
 18 36  1  0
 18 37  1  0
 18 38  1  0
 19 39  1  0
 19 40  1  0
 19 41  1  0
M  END
