
     RDKit          3D

 41 40  0  0  0  0  0  0  0  0999 V2000
    3.8264    0.7939    1.4775 C   0  0  0  0  0  0  0  0  0  0  0  0
    4.2520   -0.3953    0.6125 C   0  0  0  0  0  0  0  0  0  0  0  0
    3.0352   -1.1191    0.0166 C   0  0  0  0  0  0  0  0  0  0  0  0
    2.3261   -0.3053   -1.0429 C   0  0  0  0  0  0  0  0  0  0  0  0
    2.8317    0.5867   -1.7076 O   0  0  0  0  0  0  0  0  0  0  0  0
    1.0413   -0.7426   -1.1700 O   0  0  0  0  0  0  0  0  0  0  0  0
    0.2742   -0.0354   -2.1627 C   0  0  0  0  0  0  0  0  0  0  0  0
   -1.1348   -0.6494   -2.2553 C   0  0  0  0  0  0  0  0  0  0  0  0
   -1.8486   -0.5211   -0.9875 N   0  0  0  0  0  0  0  0  0  0  0  0
   -2.4352    0.6704   -0.6067 C   0  0  0  0  0  0  0  0  0  0  0  0
   -2.4839    1.6575   -1.3339 O   0  0  0  0  0  0  0  0  0  0  0  0
   -2.9382    0.6620    0.8531 C   0  0  0  0  0  0  0  0  0  0  0  0
   -3.9366    1.7922    1.0966 C   0  0  0  0  0  0  0  0  0  0  0  0
   -5.2050    1.5348    0.3338 C   0  0  0  0  0  0  0  0  0  0  0  0
   -5.5541    0.4859   -0.1814 O   0  0  0  0  0  0  0  0  0  0  0  0
   -6.0052    2.6181    0.2965 O   0  0  0  0  0  0  0  0  0  0  0  0
   -1.7633    0.8241    1.7469 N   0  0  0  0  0  0  0  0  0  0  0  0
   -1.0825   -2.1187   -2.6680 C   0  0  0  0  0  0  0  0  0  0  0  0
    5.0855   -1.3703    1.4459 C   0  0  0  0  0  0  0  0  0  0  0  0
    4.7026    1.2997    1.8974 H   0  0  0  0  0  0  0  0  0  0  0  0
    3.1918    0.4725    2.3104 H   0  0  0  0  0  0  0  0  0  0  0  0
    3.2685    1.5321    0.8930 H   0  0  0  0  0  0  0  0  0  0  0  0
    4.8864   -0.0181   -0.1995 H   0  0  0  0  0  0  0  0  0  0  0  0
    3.3457   -2.0565   -0.4596 H   0  0  0  0  0  0  0  0  0  0  0  0
    2.3239   -1.3612    0.8157 H   0  0  0  0  0  0  0  0  0  0  0  0
    0.7747   -0.1154   -3.1353 H   0  0  0  0  0  0  0  0  0  0  0  0
    0.2108    1.0208   -1.8756 H   0  0  0  0  0  0  0  0  0  0  0  0
   -1.6984   -0.0936   -3.0145 H   0  0  0  0  0  0  0  0  0  0  0  0
   -1.6777   -1.2187   -0.2740 H   0  0  0  0  0  0  0  0  0  0  0  0
   -3.4002   -0.3102    1.0618 H   0  0  0  0  0  0  0  0  0  0  0  0
   -4.1969    1.8514    2.1597 H   0  0  0  0  0  0  0  0  0  0  0  0
   -3.5241    2.7577    0.7808 H   0  0  0  0  0  0  0  0  0  0  0  0
   -6.7792    2.3307   -0.2315 H   0  0  0  0  0  0  0  0  0  0  0  0
   -1.0447    0.1494    1.4874 H   0  0  0  0  0  0  0  0  0  0  0  0
   -1.3473    1.7416    1.5682 H   0  0  0  0  0  0  0  0  0  0  0  0
   -2.0949   -2.5221   -2.7811 H   0  0  0  0  0  0  0  0  0  0  0  0
   -0.5693   -2.7323   -1.9195 H   0  0  0  0  0  0  0  0  0  0  0  0
   -0.5624   -2.2373   -3.6241 H   0  0  0  0  0  0  0  0  0  0  0  0
    4.5033   -1.7814    2.2778 H   0  0  0  0  0  0  0  0  0  0  0  0
    5.4358   -2.2063    0.8313 H   0  0  0  0  0  0  0  0  0  0  0  0
    5.9667   -0.8713    1.8628 H   0  0  0  0  0  0  0  0  0  0  0  0
  1  2  1  0
  2  3  1  0
  3  4  1  0
  4  5  2  0
  4  6  1  0
  6  7  1  0
  7  8  1  0
  8  9  1  0
  9 10  1  0
 10 11  2  0
 10 12  1  0
 12 13  1  0
 13 14  1  0
 14 15  2  0
 14 16  1  0
 12 17  1  0
  8 18  1  0
  2 19  1  0
  1 20  1  0
  1 21  1  0
  1 22  1  0
  2 23  1  0
  3 24  1  0
  3 25  1  0
  7 26  1  0
  7 27  1  0
  8 28  1  0
  9 29  1  0
 12 30  1  0
 13 31  1  0
 13 32  1  0
 16 33  1  0
 17 34  1  0
 17 35  1  0
 18 36  1  0
 18 37  1  0
 18 38  1  0
 19 39  1  0
 19 40  1  0
 19 41  1  0
M  END
