
     RDKit          3D

 41 40  0  0  0  0  0  0  0  0999 V2000
   -0.1906   -3.6118    0.8310 C   0  0  0  0  0  0  0  0  0  0  0  0
    0.0693   -2.1262    0.5972 C   0  0  0  0  0  0  0  0  0  0  0  0
   -1.0830   -1.5086   -0.0584 N   0  0  0  0  0  0  0  0  0  0  0  0
   -2.1816   -1.0590    0.6343 C   0  0  0  0  0  0  0  0  0  0  0  0
   -2.2675   -1.1059    1.8603 O   0  0  0  0  0  0  0  0  0  0  0  0
   -3.3149   -0.4797   -0.2510 C   0  0  0  0  0  0  0  0  0  0  0  0
   -2.8957    0.8560   -0.8671 C   0  0  0  0  0  0  0  0  0  0  0  0
   -2.0523    0.6505   -2.0941 C   0  0  0  0  0  0  0  0  0  0  0  0
   -1.6220   -0.4092   -2.5219 O   0  0  0  0  0  0  0  0  0  0  0  0
   -1.7669    1.8105   -2.7154 O   0  0  0  0  0  0  0  0  0  0  0  0
   -4.5183   -0.2748    0.5958 N   0  0  0  0  0  0  0  0  0  0  0  0
    1.3405   -1.9253   -0.2470 C   0  0  0  0  0  0  0  0  0  0  0  0
    1.6186   -0.5227   -0.4189 O   0  0  0  0  0  0  0  0  0  0  0  0
    2.2556    0.0805    0.6255 C   0  0  0  0  0  0  0  0  0  0  0  0
    2.6411   -0.5064    1.6278 O   0  0  0  0  0  0  0  0  0  0  0  0
    2.4132    1.5816    0.3738 C   0  0  0  0  0  0  0  0  0  0  0  0
    1.0270    2.2154    0.1942 C   0  0  0  0  0  0  0  0  0  0  0  0
    3.1087    2.2330    1.5792 C   0  0  0  0  0  0  0  0  0  0  0  0
    3.2697    1.8027   -0.8795 C   0  0  0  0  0  0  0  0  0  0  0  0
   -1.0808   -3.7622    1.4511 H   0  0  0  0  0  0  0  0  0  0  0  0
   -0.3570   -4.1381   -0.1156 H   0  0  0  0  0  0  0  0  0  0  0  0
    0.6577   -4.0812    1.3397 H   0  0  0  0  0  0  0  0  0  0  0  0
    0.1922   -1.6341    1.5687 H   0  0  0  0  0  0  0  0  0  0  0  0
   -1.1221   -1.5227   -1.0780 H   0  0  0  0  0  0  0  0  0  0  0  0
   -3.5704   -1.2204   -1.0173 H   0  0  0  0  0  0  0  0  0  0  0  0
   -3.7835    1.4167   -1.1851 H   0  0  0  0  0  0  0  0  0  0  0  0
   -2.3292    1.4621   -0.1509 H   0  0  0  0  0  0  0  0  0  0  0  0
   -1.2214    1.5602   -3.4903 H   0  0  0  0  0  0  0  0  0  0  0  0
   -4.2260    0.2715    1.4132 H   0  0  0  0  0  0  0  0  0  0  0  0
   -4.7600   -1.1797    1.0091 H   0  0  0  0  0  0  0  0  0  0  0  0
    2.2058   -2.4374    0.1913 H   0  0  0  0  0  0  0  0  0  0  0  0
    1.2001   -2.3401   -1.2520 H   0  0  0  0  0  0  0  0  0  0  0  0
    0.3818    2.0034    1.0546 H   0  0  0  0  0  0  0  0  0  0  0  0
    1.0988    3.3030    0.0836 H   0  0  0  0  0  0  0  0  0  0  0  0
    0.5190    1.8265   -0.6950 H   0  0  0  0  0  0  0  0  0  0  0  0
    4.1023    1.8007    1.7459 H   0  0  0  0  0  0  0  0  0  0  0  0
    2.5304    2.0861    2.4988 H   0  0  0  0  0  0  0  0  0  0  0  0
    3.2340    3.3115    1.4316 H   0  0  0  0  0  0  0  0  0  0  0  0
    3.4473    2.8694   -1.0554 H   0  0  0  0  0  0  0  0  0  0  0  0
    2.7869    1.3957   -1.7752 H   0  0  0  0  0  0  0  0  0  0  0  0
    4.2433    1.3084   -0.7831 H   0  0  0  0  0  0  0  0  0  0  0  0
  1  2  1  0
  2  3  1  0
  3  4  1  0
  4  5  2  0
  4  6  1  0
  6  7  1  0
  7  8  1  0
  8  9  2  0
  8 10  1  0
  6 11  1  0
  2 12  1  0
 12 13  1  0
 13 14  1  0
 14 15  2  0
 14 16  1  0
 16 17  1  0
 16 18  1  0
 16 19  1  0
  1 20  1  0
  1 21  1  0
  1 22  1  0
  2 23  1  0
  3 24  1  0
  6 25  1  0
  7 26  1  0
  7 27  1  0
 10 28  1  0
 11 29  1  0
 11 30  1  0
 12 31  1  0
 12 32  1  0
 17 33  1  0
 17 34  1  0
 17 35  1  0
 18 36  1  0
 18 37  1  0
 18 38  1  0
 19 39  1  0
 19 40  1  0
 19 41  1  0
M  END
