
     RDKit          3D

 39 39  0  0  0  0  0  0  0  0999 V2000
   -2.2180   -3.0483    1.9059 C   0  0  0  0  0  0  0  0  0  0  0  0
   -1.3397   -2.2921    0.9126 C   0  0  0  0  0  0  0  0  0  0  0  0
   -1.9262   -0.9754    0.6706 N   0  0  0  0  0  0  0  0  0  0  0  0
   -1.8650   -0.3384   -0.5495 C   0  0  0  0  0  0  0  0  0  0  0  0
   -1.3595   -0.8342   -1.5534 O   0  0  0  0  0  0  0  0  0  0  0  0
   -2.5127    1.0720   -0.5616 C   0  0  0  0  0  0  0  0  0  0  0  0
   -1.4677    2.1474   -0.2696 C   0  0  0  0  0  0  0  0  0  0  0  0
   -0.8672    1.9406    1.0897 C   0  0  0  0  0  0  0  0  0  0  0  0
   -1.3936    1.3582    2.0260 O   0  0  0  0  0  0  0  0  0  0  0  0
    0.3796    2.4381    1.1707 O   0  0  0  0  0  0  0  0  0  0  0  0
   -3.1256    1.3093   -1.8936 N   0  0  0  0  0  0  0  0  0  0  0  0
    0.1010   -2.1892    1.4478 C   0  0  0  0  0  0  0  0  0  0  0  0
    0.9830   -1.7656    0.3973 O   0  0  0  0  0  0  0  0  0  0  0  0
    1.6526   -0.6034    0.5817 C   0  0  0  0  0  0  0  0  0  0  0  0
    1.6320    0.0950    1.5867 O   0  0  0  0  0  0  0  0  0  0  0  0
    2.4563   -0.2601   -0.6179 C   0  0  0  0  0  0  0  0  0  0  0  0
    3.9186    0.1073   -0.4726 C   0  0  0  0  0  0  0  0  0  0  0  0
    2.9164    1.1604   -0.8648 C   0  0  0  0  0  0  0  0  0  0  0  0
    2.9116    1.7208   -2.2464 C   0  0  0  0  0  0  0  0  0  0  0  0
   -2.2449   -2.5430    2.8759 H   0  0  0  0  0  0  0  0  0  0  0  0
   -3.2481   -3.1163    1.5430 H   0  0  0  0  0  0  0  0  0  0  0  0
   -1.8496   -4.0662    2.0611 H   0  0  0  0  0  0  0  0  0  0  0  0
   -1.3278   -2.8333   -0.0405 H   0  0  0  0  0  0  0  0  0  0  0  0
   -2.0880   -0.3825    1.4851 H   0  0  0  0  0  0  0  0  0  0  0  0
   -3.3172    1.1002    0.1846 H   0  0  0  0  0  0  0  0  0  0  0  0
   -0.6661    2.0941   -1.0136 H   0  0  0  0  0  0  0  0  0  0  0  0
   -1.9082    3.1491   -0.3023 H   0  0  0  0  0  0  0  0  0  0  0  0
    0.7908    1.9858    1.9415 H   0  0  0  0  0  0  0  0  0  0  0  0
   -2.3937    1.1537   -2.5966 H   0  0  0  0  0  0  0  0  0  0  0  0
   -3.7879    0.5522   -2.0737 H   0  0  0  0  0  0  0  0  0  0  0  0
    0.4498   -3.1768    1.7635 H   0  0  0  0  0  0  0  0  0  0  0  0
    0.1422   -1.5326    2.3241 H   0  0  0  0  0  0  0  0  0  0  0  0
    2.2063   -0.8531   -1.4918 H   0  0  0  0  0  0  0  0  0  0  0  0
    4.3413    0.1563    0.5251 H   0  0  0  0  0  0  0  0  0  0  0  0
    4.6083   -0.2671   -1.2215 H   0  0  0  0  0  0  0  0  0  0  0  0
    2.6884    1.9200   -0.1229 H   0  0  0  0  0  0  0  0  0  0  0  0
    1.9152    2.0985   -2.4999 H   0  0  0  0  0  0  0  0  0  0  0  0
    3.6223    2.5506   -2.3163 H   0  0  0  0  0  0  0  0  0  0  0  0
    3.1909    0.9680   -2.9920 H   0  0  0  0  0  0  0  0  0  0  0  0
  1  2  1  0
  2  3  1  0
  3  4  1  0
  4  5  2  0
  4  6  1  0
  6  7  1  0
  7  8  1  0
  8  9  2  0
  8 10  1  0
  6 11  1  0
  2 12  1  0
 12 13  1  0
 13 14  1  0
 14 15  2  0
 14 16  1  0
 16 17  1  0
 17 18  1  0
 18 19  1  0
 18 16  1  0
  1 20  1  0
  1 21  1  0
  1 22  1  0
  2 23  1  0
  3 24  1  0
  6 25  1  0
  7 26  1  0
  7 27  1  0
 10 28  1  0
 11 29  1  0
 11 30  1  0
 12 31  1  0
 12 32  1  0
 16 33  1  0
 17 34  1  0
 17 35  1  0
 18 36  1  0
 19 37  1  0
 19 38  1  0
 19 39  1  0
M  END
