
     RDKit          3D

 19 19  0  0  0  0  0  0  0  0999 V2000
   -2.4656   -1.8101   -1.5075 O   0  0  0  0  0  1  0  0  0  0  0  0
   -1.6483   -1.8114   -0.5765 N   0  0  0  0  0  4  0  0  0  0  0  0
   -1.3183   -2.8035    0.0879 O   0  0  0  0  0  0  0  0  0  0  0  0
   -1.0497   -0.5332   -0.2156 C   0  0  0  0  0  0  0  0  0  0  0  0
   -1.9329    0.5212    0.0547 C   0  0  0  0  0  0  0  0  0  0  0  0
   -1.4166    1.7568    0.4188 C   0  0  0  0  0  0  0  0  0  0  0  0
   -0.0358    1.9175    0.5403 C   0  0  0  0  0  0  0  0  0  0  0  0
    0.8528    0.8489    0.3265 C   0  0  0  0  0  0  0  0  0  0  0  0
    0.3530   -0.3836   -0.1394 C   0  0  0  0  0  0  0  0  0  0  0  0
    1.2877   -1.5083   -0.5049 C   0  0  0  0  0  0  0  0  0  0  0  0
    2.2304    1.1146    0.3840 N   0  0  0  0  0  0  0  0  0  0  0  0
   -3.0094    0.3874   -0.0281 H   0  0  0  0  0  0  0  0  0  0  0  0
   -2.0811    2.5962    0.6077 H   0  0  0  0  0  0  0  0  0  0  0  0
    0.3512    2.8973    0.8135 H   0  0  0  0  0  0  0  0  0  0  0  0
    1.5114   -2.1129    0.3793 H   0  0  0  0  0  0  0  0  0  0  0  0
    2.2263   -1.1322   -0.9243 H   0  0  0  0  0  0  0  0  0  0  0  0
    0.8646   -2.1510   -1.2834 H   0  0  0  0  0  0  0  0  0  0  0  0
    2.8057    0.3040    0.5902 H   0  0  0  0  0  0  0  0  0  0  0  0
    2.4746    1.9023    0.9771 H   0  0  0  0  0  0  0  0  0  0  0  0
  1  2  1  0
  2  3  2  0
  2  4  1  0
  4  5  2  0
  5  6  1  0
  6  7  2  0
  7  8  1  0
  8  9  2  0
  9 10  1  0
  8 11  1  0
  9  4  1  0
  5 12  1  0
  6 13  1  0
  7 14  1  0
 10 15  1  0
 10 16  1  0
 10 17  1  0
 11 18  1  0
 11 19  1  0
M  CHG  2   1  -1   2   1
M  END
