
     RDKit          3D

 39 39  0  0  0  0  0  0  0  0999 V2000
   -0.5102   -2.2013   -0.7789 C   0  0  0  0  0  0  0  0  0  0  0  0
   -0.5896   -1.1462    0.3237 C   0  0  0  0  0  0  0  0  0  0  0  0
   -1.9806   -0.7592    0.5345 N   0  0  0  0  0  0  0  0  0  0  0  0
   -2.3962   -0.1768    1.7112 C   0  0  0  0  0  0  0  0  0  0  0  0
   -1.6653   -0.0488    2.6918 O   0  0  0  0  0  0  0  0  0  0  0  0
   -3.8647    0.3126    1.7072 C   0  0  0  0  0  0  0  0  0  0  0  0
   -3.9478    1.7290    1.1378 C   0  0  0  0  0  0  0  0  0  0  0  0
   -3.8370    1.7235   -0.3608 C   0  0  0  0  0  0  0  0  0  0  0  0
   -3.5786    0.7669   -1.0743 O   0  0  0  0  0  0  0  0  0  0  0  0
   -4.0352    2.9455   -0.8890 O   0  0  0  0  0  0  0  0  0  0  0  0
   -4.3671    0.3068    3.1035 N   0  0  0  0  0  0  0  0  0  0  0  0
    0.2886    0.0752   -0.0031 C   0  0  0  0  0  0  0  0  0  0  0  0
    1.6601   -0.3316   -0.1208 O   0  0  0  0  0  0  0  0  0  0  0  0
    2.5153    0.6584   -0.5172 C   0  0  0  0  0  0  0  0  0  0  0  0
    2.1447    1.8029   -0.7724 O   0  0  0  0  0  0  0  0  0  0  0  0
    3.9741    0.1548   -0.6020 C   0  0  0  0  0  0  0  0  0  0  0  0
    4.2349   -1.3054   -1.0668 C   0  0  0  0  0  0  0  0  0  0  0  0
    5.4973   -0.7854   -1.7786 C   0  0  0  0  0  0  0  0  0  0  0  0
    4.8091    0.5907   -1.8377 C   0  0  0  0  0  0  0  0  0  0  0  0
   -1.1407   -3.0633   -0.5340 H   0  0  0  0  0  0  0  0  0  0  0  0
    0.5142   -2.5628   -0.9129 H   0  0  0  0  0  0  0  0  0  0  0  0
   -0.8598   -1.7996   -1.7365 H   0  0  0  0  0  0  0  0  0  0  0  0
   -0.2185   -1.6023    1.2503 H   0  0  0  0  0  0  0  0  0  0  0  0
   -2.5514   -0.5857   -0.2946 H   0  0  0  0  0  0  0  0  0  0  0  0
   -4.4758   -0.3896    1.1285 H   0  0  0  0  0  0  0  0  0  0  0  0
   -3.1512    2.3647    1.5414 H   0  0  0  0  0  0  0  0  0  0  0  0
   -4.9194    2.1733    1.3863 H   0  0  0  0  0  0  0  0  0  0  0  0
   -3.9300    2.8352   -1.8571 H   0  0  0  0  0  0  0  0  0  0  0  0
   -3.6854    0.8198    3.6737 H   0  0  0  0  0  0  0  0  0  0  0  0
   -4.2939   -0.6491    3.4595 H   0  0  0  0  0  0  0  0  0  0  0  0
    0.2095    0.8219    0.7960 H   0  0  0  0  0  0  0  0  0  0  0  0
   -0.0481    0.5317   -0.9427 H   0  0  0  0  0  0  0  0  0  0  0  0
    4.5035    0.3786    0.3364 H   0  0  0  0  0  0  0  0  0  0  0  0
    3.4780   -1.7058   -1.7516 H   0  0  0  0  0  0  0  0  0  0  0  0
    4.4114   -2.0318   -0.2692 H   0  0  0  0  0  0  0  0  0  0  0  0
    6.3961   -0.8026   -1.1516 H   0  0  0  0  0  0  0  0  0  0  0  0
    5.7249   -1.2463   -2.7428 H   0  0  0  0  0  0  0  0  0  0  0  0
    5.4663    1.4510   -1.6856 H   0  0  0  0  0  0  0  0  0  0  0  0
    4.2185    0.7507   -2.7474 H   0  0  0  0  0  0  0  0  0  0  0  0
  1  2  1  0
  2  3  1  0
  3  4  1  0
  4  5  2  0
  4  6  1  0
  6  7  1  0
  7  8  1  0
  8  9  2  0
  8 10  1  0
  6 11  1  0
  2 12  1  0
 12 13  1  0
 13 14  1  0
 14 15  2  0
 14 16  1  0
 16 17  1  0
 17 18  1  0
 18 19  1  0
 19 16  1  0
  1 20  1  0
  1 21  1  0
  1 22  1  0
  2 23  1  0
  3 24  1  0
  6 25  1  0
  7 26  1  0
  7 27  1  0
 10 28  1  0
 11 29  1  0
 11 30  1  0
 12 31  1  0
 12 32  1  0
 16 33  1  0
 17 34  1  0
 17 35  1  0
 18 36  1  0
 18 37  1  0
 19 38  1  0
 19 39  1  0
M  END
