
     RDKit          3D

 44 43  0  0  0  0  0  0  0  0999 V2000
    3.9650   -0.2856   -0.5645 C   0  0  0  0  0  0  0  0  0  0  0  0
    2.8798   -1.1346    0.0863 C   0  0  0  0  0  0  0  0  0  0  0  0
    2.4652   -0.6854    1.4986 C   0  0  0  0  0  0  0  0  0  0  0  0
    1.7078    0.6321    1.4162 C   0  0  0  0  0  0  0  0  0  0  0  0
    2.1947    1.7366    1.6095 O   0  0  0  0  0  0  0  0  0  0  0  0
    0.4125    0.3958    1.0687 O   0  0  0  0  0  0  0  0  0  0  0  0
   -0.4499    1.5467    0.9613 C   0  0  0  0  0  0  0  0  0  0  0  0
   -0.6866    1.9279   -0.5130 C   0  0  0  0  0  0  0  0  0  0  0  0
   -1.2803    0.8245   -1.2599 N   0  0  0  0  0  0  0  0  0  0  0  0
   -2.6038    0.4647   -1.0927 C   0  0  0  0  0  0  0  0  0  0  0  0
   -3.4115    1.1249   -0.4484 O   0  0  0  0  0  0  0  0  0  0  0  0
   -2.9480   -0.8576   -1.8167 C   0  0  0  0  0  0  0  0  0  0  0  0
   -4.3205   -1.3725   -1.3888 C   0  0  0  0  0  0  0  0  0  0  0  0
   -5.4099   -0.5191   -1.9767 C   0  0  0  0  0  0  0  0  0  0  0  0
   -5.3571    0.1295   -3.0076 O   0  0  0  0  0  0  0  0  0  0  0  0
   -6.5514   -0.5881   -1.2645 O   0  0  0  0  0  0  0  0  0  0  0  0
   -1.8783   -1.8489   -1.5057 N   0  0  0  0  0  0  0  0  0  0  0  0
    0.5903    2.3831   -1.2123 C   0  0  0  0  0  0  0  0  0  0  0  0
    3.6527   -0.6006    2.4711 C   0  0  0  0  0  0  0  0  0  0  0  0
    3.2091   -0.4813    3.9244 C   0  0  0  0  0  0  0  0  0  0  0  0
    4.9076   -0.3487   -0.0134 H   0  0  0  0  0  0  0  0  0  0  0  0
    3.6701    0.7656   -0.6283 H   0  0  0  0  0  0  0  0  0  0  0  0
    4.1553   -0.6416   -1.5824 H   0  0  0  0  0  0  0  0  0  0  0  0
    2.0009   -1.1357   -0.5709 H   0  0  0  0  0  0  0  0  0  0  0  0
    3.2336   -2.1718    0.1333 H   0  0  0  0  0  0  0  0  0  0  0  0
    1.7666   -1.4344    1.8966 H   0  0  0  0  0  0  0  0  0  0  0  0
   -0.0623    2.4024    1.5263 H   0  0  0  0  0  0  0  0  0  0  0  0
   -1.3965    1.2643    1.4351 H   0  0  0  0  0  0  0  0  0  0  0  0
   -1.4030    2.7587   -0.5303 H   0  0  0  0  0  0  0  0  0  0  0  0
   -0.6845    0.0385   -1.5143 H   0  0  0  0  0  0  0  0  0  0  0  0
   -2.9182   -0.6576   -2.8943 H   0  0  0  0  0  0  0  0  0  0  0  0
   -4.4845   -2.3953   -1.7468 H   0  0  0  0  0  0  0  0  0  0  0  0
   -4.4097   -1.3688   -0.2957 H   0  0  0  0  0  0  0  0  0  0  0  0
   -7.1603    0.0230   -1.7303 H   0  0  0  0  0  0  0  0  0  0  0  0
   -1.9212   -2.0707   -0.5090 H   0  0  0  0  0  0  0  0  0  0  0  0
   -2.0901   -2.7210   -1.9915 H   0  0  0  0  0  0  0  0  0  0  0  0
    1.0629    3.2073   -0.6690 H   0  0  0  0  0  0  0  0  0  0  0  0
    0.3667    2.7327   -2.2263 H   0  0  0  0  0  0  0  0  0  0  0  0
    1.3144    1.5675   -1.3069 H   0  0  0  0  0  0  0  0  0  0  0  0
    4.2687   -1.5029    2.3747 H   0  0  0  0  0  0  0  0  0  0  0  0
    4.2947    0.2552    2.2311 H   0  0  0  0  0  0  0  0  0  0  0  0
    4.0837   -0.4501    4.5816 H   0  0  0  0  0  0  0  0  0  0  0  0
    2.5965   -1.3393    4.2185 H   0  0  0  0  0  0  0  0  0  0  0  0
    2.6290    0.4307    4.0943 H   0  0  0  0  0  0  0  0  0  0  0  0
  1  2  1  0
  2  3  1  0
  3  4  1  0
  4  5  2  0
  4  6  1  0
  6  7  1  0
  7  8  1  0
  8  9  1  0
  9 10  1  0
 10 11  2  0
 10 12  1  0
 12 13  1  0
 13 14  1  0
 14 15  2  0
 14 16  1  0
 12 17  1  0
  8 18  1  0
  3 19  1  0
 19 20  1  0
  1 21  1  0
  1 22  1  0
  1 23  1  0
  2 24  1  0
  2 25  1  0
  3 26  1  0
  7 27  1  0
  7 28  1  0
  8 29  1  0
  9 30  1  0
 12 31  1  0
 13 32  1  0
 13 33  1  0
 16 34  1  0
 17 35  1  0
 17 36  1  0
 18 37  1  0
 18 38  1  0
 18 39  1  0
 19 40  1  0
 19 41  1  0
 20 42  1  0
 20 43  1  0
 20 44  1  0
M  END
