
     RDKit          3D

 42 42  0  0  0  0  0  0  0  0999 V2000
    0.7163   -0.5221    0.7255 C   0  0  0  0  0  0  0  0  0  0  0  0
    0.6237   -0.6129   -0.7980 C   0  0  0  0  0  0  0  0  0  0  0  0
    1.9216   -0.3128   -1.3962 N   0  0  0  0  0  0  0  0  0  0  0  0
    2.9046   -1.2681   -1.5307 C   0  0  0  0  0  0  0  0  0  0  0  0
    2.7251   -2.4602   -1.2866 O   0  0  0  0  0  0  0  0  0  0  0  0
    4.2665   -0.7259   -2.0325 C   0  0  0  0  0  0  0  0  0  0  0  0
    5.0857   -0.1750   -0.8649 C   0  0  0  0  0  0  0  0  0  0  0  0
    4.5946    1.1804   -0.4434 C   0  0  0  0  0  0  0  0  0  0  0  0
    3.6013    1.7623   -0.8517 O   0  0  0  0  0  0  0  0  0  0  0  0
    5.3722    1.7292    0.5090 O   0  0  0  0  0  0  0  0  0  0  0  0
    5.0082   -1.8379   -2.6785 N   0  0  0  0  0  0  0  0  0  0  0  0
   -0.4562    0.3186   -1.3721 C   0  0  0  0  0  0  0  0  0  0  0  0
   -1.7640   -0.0318   -0.8876 O   0  0  0  0  0  0  0  0  0  0  0  0
   -2.3164    0.8022    0.0451 C   0  0  0  0  0  0  0  0  0  0  0  0
   -1.7359    1.7863    0.4968 O   0  0  0  0  0  0  0  0  0  0  0  0
   -3.7392    0.3342    0.4468 C   0  0  0  0  0  0  0  0  0  0  0  0
   -4.9129    1.3096    0.1590 C   0  0  0  0  0  0  0  0  0  0  0  0
   -5.5597    0.8233    1.4708 C   0  0  0  0  0  0  0  0  0  0  0  0
   -4.1358    0.4495    1.9538 C   0  0  0  0  0  0  0  0  0  0  0  0
   -4.0142   -0.8114    2.7878 C   0  0  0  0  0  0  0  0  0  0  0  0
   -0.2211   -0.8270    1.2004 H   0  0  0  0  0  0  0  0  0  0  0  0
    1.5076   -1.1731    1.1087 H   0  0  0  0  0  0  0  0  0  0  0  0
    0.9486    0.4994    1.0457 H   0  0  0  0  0  0  0  0  0  0  0  0
    0.3579   -1.6481   -1.0492 H   0  0  0  0  0  0  0  0  0  0  0  0
    2.2208    0.6632   -1.3915 H   0  0  0  0  0  0  0  0  0  0  0  0
    4.0860    0.0415   -2.7946 H   0  0  0  0  0  0  0  0  0  0  0  0
    6.1336   -0.0566   -1.1677 H   0  0  0  0  0  0  0  0  0  0  0  0
    5.0380   -0.8451    0.0008 H   0  0  0  0  0  0  0  0  0  0  0  0
    4.9564    2.5924    0.7185 H   0  0  0  0  0  0  0  0  0  0  0  0
    4.4332   -2.1914   -3.4473 H   0  0  0  0  0  0  0  0  0  0  0  0
    5.0142   -2.6222   -2.0172 H   0  0  0  0  0  0  0  0  0  0  0  0
   -0.2084    1.3711   -1.1911 H   0  0  0  0  0  0  0  0  0  0  0  0
   -0.4884    0.2039   -2.4631 H   0  0  0  0  0  0  0  0  0  0  0  0
   -3.9550   -0.6684    0.0460 H   0  0  0  0  0  0  0  0  0  0  0  0
   -5.4870    1.1056   -0.7491 H   0  0  0  0  0  0  0  0  0  0  0  0
   -4.6332    2.3695    0.1710 H   0  0  0  0  0  0  0  0  0  0  0  0
   -6.0744    1.5906    2.0545 H   0  0  0  0  0  0  0  0  0  0  0  0
   -6.2323   -0.0316    1.3332 H   0  0  0  0  0  0  0  0  0  0  0  0
   -3.6412    1.2919    2.4588 H   0  0  0  0  0  0  0  0  0  0  0  0
   -4.5204   -1.6601    2.3147 H   0  0  0  0  0  0  0  0  0  0  0  0
   -4.4587   -0.6621    3.7777 H   0  0  0  0  0  0  0  0  0  0  0  0
   -2.9614   -1.0809    2.9296 H   0  0  0  0  0  0  0  0  0  0  0  0
  1  2  1  0
  2  3  1  0
  3  4  1  0
  4  5  2  0
  4  6  1  0
  6  7  1  0
  7  8  1  0
  8  9  2  0
  8 10  1  0
  6 11  1  0
  2 12  1  0
 12 13  1  0
 13 14  1  0
 14 15  2  0
 14 16  1  0
 16 17  1  0
 17 18  1  0
 18 19  1  0
 19 20  1  0
 19 16  1  0
  1 21  1  0
  1 22  1  0
  1 23  1  0
  2 24  1  0
  3 25  1  0
  6 26  1  0
  7 27  1  0
  7 28  1  0
 10 29  1  0
 11 30  1  0
 11 31  1  0
 12 32  1  0
 12 33  1  0
 16 34  1  0
 17 35  1  0
 17 36  1  0
 18 37  1  0
 18 38  1  0
 19 39  1  0
 20 40  1  0
 20 41  1  0
 20 42  1  0
M  END
