
     RDKit          3D

 42 42  0  0  0  0  0  0  0  0999 V2000
    1.1601    3.4039    1.9627 C   0  0  0  0  0  0  0  0  0  0  0  0
    0.6953    2.1316    1.2619 C   0  0  0  0  0  0  0  0  0  0  0  0
    1.7107    1.0925    1.4159 N   0  0  0  0  0  0  0  0  0  0  0  0
    1.8296    0.0394    0.5280 C   0  0  0  0  0  0  0  0  0  0  0  0
    1.2484   -0.0185   -0.5496 O   0  0  0  0  0  0  0  0  0  0  0  0
    2.8118   -1.0432    1.0311 C   0  0  0  0  0  0  0  0  0  0  0  0
    2.6250   -2.3565    0.2735 C   0  0  0  0  0  0  0  0  0  0  0  0
    2.9896   -2.2633   -1.1834 C   0  0  0  0  0  0  0  0  0  0  0  0
    2.4848   -2.9204   -2.0801 O   0  0  0  0  0  0  0  0  0  0  0  0
    4.0309   -1.4526   -1.4405 O   0  0  0  0  0  0  0  0  0  0  0  0
    2.5948   -1.2356    2.4962 N   0  0  0  0  0  0  0  0  0  0  0  0
   -0.6662    1.6744    1.8288 C   0  0  0  0  0  0  0  0  0  0  0  0
   -1.1897    0.5452    1.1097 O   0  0  0  0  0  0  0  0  0  0  0  0
   -1.7673    0.8434   -0.0892 C   0  0  0  0  0  0  0  0  0  0  0  0
   -1.9656    1.9776   -0.5057 O   0  0  0  0  0  0  0  0  0  0  0  0
   -2.1583   -0.4298   -0.8138 C   0  0  0  0  0  0  0  0  0  0  0  0
   -3.6815   -0.5296   -0.9334 C   0  0  0  0  0  0  0  0  0  0  0  0
   -3.9847   -0.0936   -2.3595 C   0  0  0  0  0  0  0  0  0  0  0  0
   -2.8226   -0.6683   -3.1493 C   0  0  0  0  0  0  0  0  0  0  0  0
   -1.6127   -0.4474   -2.2483 C   0  0  0  0  0  0  0  0  0  0  0  0
    2.1220    3.7392    1.5593 H   0  0  0  0  0  0  0  0  0  0  0  0
    0.4353    4.2130    1.8262 H   0  0  0  0  0  0  0  0  0  0  0  0
    1.2930    3.2402    3.0379 H   0  0  0  0  0  0  0  0  0  0  0  0
    0.5979    2.3327    0.1890 H   0  0  0  0  0  0  0  0  0  0  0  0
    2.0547    0.8698    2.3485 H   0  0  0  0  0  0  0  0  0  0  0  0
    3.8248   -0.6472    0.8966 H   0  0  0  0  0  0  0  0  0  0  0  0
    3.2480   -3.1456    0.7106 H   0  0  0  0  0  0  0  0  0  0  0  0
    1.5775   -2.6777    0.3315 H   0  0  0  0  0  0  0  0  0  0  0  0
    4.1203   -1.4936   -2.4170 H   0  0  0  0  0  0  0  0  0  0  0  0
    1.6731   -1.6575    2.6322 H   0  0  0  0  0  0  0  0  0  0  0  0
    3.2641   -1.9290    2.8339 H   0  0  0  0  0  0  0  0  0  0  0  0
   -0.5496    1.3529    2.8704 H   0  0  0  0  0  0  0  0  0  0  0  0
   -1.3975    2.4921    1.8302 H   0  0  0  0  0  0  0  0  0  0  0  0
   -1.7694   -1.2890   -0.2540 H   0  0  0  0  0  0  0  0  0  0  0  0
   -3.9913   -1.5732   -0.7976 H   0  0  0  0  0  0  0  0  0  0  0  0
   -4.2220    0.0776   -0.2004 H   0  0  0  0  0  0  0  0  0  0  0  0
   -4.9512   -0.4662   -2.7105 H   0  0  0  0  0  0  0  0  0  0  0  0
   -3.9910    1.0002   -2.4316 H   0  0  0  0  0  0  0  0  0  0  0  0
   -2.9743   -1.7418   -3.3138 H   0  0  0  0  0  0  0  0  0  0  0  0
   -2.7044   -0.1905   -4.1261 H   0  0  0  0  0  0  0  0  0  0  0  0
   -0.8787   -1.2489   -2.3859 H   0  0  0  0  0  0  0  0  0  0  0  0
   -1.1136    0.4928   -2.5099 H   0  0  0  0  0  0  0  0  0  0  0  0
  1  2  1  0
  2  3  1  0
  3  4  1  0
  4  5  2  0
  4  6  1  0
  6  7  1  0
  7  8  1  0
  8  9  2  0
  8 10  1  0
  6 11  1  0
  2 12  1  0
 12 13  1  0
 13 14  1  0
 14 15  2  0
 14 16  1  0
 16 17  1  0
 17 18  1  0
 18 19  1  0
 19 20  1  0
 20 16  1  0
  1 21  1  0
  1 22  1  0
  1 23  1  0
  2 24  1  0
  3 25  1  0
  6 26  1  0
  7 27  1  0
  7 28  1  0
 10 29  1  0
 11 30  1  0
 11 31  1  0
 12 32  1  0
 12 33  1  0
 16 34  1  0
 17 35  1  0
 17 36  1  0
 18 37  1  0
 18 38  1  0
 19 39  1  0
 19 40  1  0
 20 41  1  0
 20 42  1  0
M  END
