
     RDKit          3D

 33 32  0  0  0  0  0  0  0  0999 V2000
   -1.0068    0.0344    2.8705 O   0  0  0  0  0  0  0  0  0  0  0  0
   -1.4530   -1.2366    2.3961 C   0  0  0  0  0  0  0  0  0  0  0  0
   -1.1416   -1.4456    0.9033 C   0  0  0  0  0  0  0  0  0  0  0  0
    0.2841   -1.2170    0.6604 N   0  0  0  0  0  0  0  0  0  0  0  0
    0.9178   -1.7132   -0.4526 C   0  0  0  0  0  0  0  0  0  0  0  0
    0.3709   -2.4795   -1.2441 O   0  0  0  0  0  0  0  0  0  0  0  0
    2.3752   -1.2326   -0.6407 C   0  0  0  0  0  0  0  0  0  0  0  0
    2.3964    0.0662   -1.4459 C   0  0  0  0  0  0  0  0  0  0  0  0
    2.0443    1.2476   -0.5869 C   0  0  0  0  0  0  0  0  0  0  0  0
    1.5792    1.2278    0.5410 O   0  0  0  0  0  0  0  0  0  0  0  0
    2.2758    2.4171   -1.2123 O   0  0  0  0  0  0  0  0  0  0  0  0
    3.1246   -2.2845   -1.3708 N   0  0  0  0  0  0  0  0  0  0  0  0
   -2.0059   -0.5423    0.0005 C   0  0  0  0  0  0  0  0  0  0  0  0
   -1.7866    0.8405    0.3402 O   0  0  0  0  0  0  0  0  0  0  0  0
   -2.3825    1.7260   -0.5051 C   0  0  0  0  0  0  0  0  0  0  0  0
   -3.0839    1.4321   -1.4608 O   0  0  0  0  0  0  0  0  0  0  0  0
   -2.0509    3.1269   -0.0919 C   0  0  0  0  0  0  0  0  0  0  0  0
   -1.2386    0.6966    2.1927 H   0  0  0  0  0  0  0  0  0  0  0  0
   -0.9427   -1.9978    2.9958 H   0  0  0  0  0  0  0  0  0  0  0  0
   -2.5276   -1.3206    2.5883 H   0  0  0  0  0  0  0  0  0  0  0  0
   -1.3644   -2.4878    0.6433 H   0  0  0  0  0  0  0  0  0  0  0  0
    0.6977   -0.4072    1.1273 H   0  0  0  0  0  0  0  0  0  0  0  0
    2.8449   -1.1053    0.3413 H   0  0  0  0  0  0  0  0  0  0  0  0
    1.6934    0.0277   -2.2858 H   0  0  0  0  0  0  0  0  0  0  0  0
    3.4066    0.2431   -1.8360 H   0  0  0  0  0  0  0  0  0  0  0  0
    2.0430    3.1107   -0.5607 H   0  0  0  0  0  0  0  0  0  0  0  0
    2.5741   -2.5296   -2.2011 H   0  0  0  0  0  0  0  0  0  0  0  0
    3.0980   -3.1384   -0.8093 H   0  0  0  0  0  0  0  0  0  0  0  0
   -3.0662   -0.7765    0.1523 H   0  0  0  0  0  0  0  0  0  0  0  0
   -1.7496   -0.7059   -1.0531 H   0  0  0  0  0  0  0  0  0  0  0  0
   -2.5464    3.8307   -0.7662 H   0  0  0  0  0  0  0  0  0  0  0  0
   -2.4080    3.3083    0.9252 H   0  0  0  0  0  0  0  0  0  0  0  0
   -0.9712    3.2847   -0.1548 H   0  0  0  0  0  0  0  0  0  0  0  0
  1  2  1  0
  2  3  1  0
  3  4  1  0
  4  5  1  0
  5  6  2  0
  5  7  1  0
  7  8  1  0
  8  9  1  0
  9 10  2  0
  9 11  1  0
  7 12  1  0
  3 13  1  0
 13 14  1  0
 14 15  1  0
 15 16  2  0
 15 17  1  0
  1 18  1  0
  2 19  1  0
  2 20  1  0
  3 21  1  0
  4 22  1  0
  7 23  1  0
  8 24  1  0
  8 25  1  0
 11 26  1  0
 12 27  1  0
 12 28  1  0
 13 29  1  0
 13 30  1  0
 17 31  1  0
 17 32  1  0
 17 33  1  0
M  END
