
     RDKit          3D

 36 35  0  0  0  0  0  0  0  0999 V2000
   -0.2120   -0.8417   -2.4530 O   0  0  0  0  0  0  0  0  0  0  0  0
   -0.5111    0.3683   -1.7572 C   0  0  0  0  0  0  0  0  0  0  0  0
   -0.3182    0.2517   -0.2280 C   0  0  0  0  0  0  0  0  0  0  0  0
    1.0417   -0.1806    0.1076 N   0  0  0  0  0  0  0  0  0  0  0  0
    1.4207   -1.4996   -0.0027 C   0  0  0  0  0  0  0  0  0  0  0  0
    0.6252   -2.3923   -0.2965 O   0  0  0  0  0  0  0  0  0  0  0  0
    2.9218   -1.7721    0.2492 C   0  0  0  0  0  0  0  0  0  0  0  0
    3.7203   -1.5546   -1.0362 C   0  0  0  0  0  0  0  0  0  0  0  0
    3.9747   -0.0934   -1.2784 C   0  0  0  0  0  0  0  0  0  0  0  0
    3.4084    0.8477   -0.7445 O   0  0  0  0  0  0  0  0  0  0  0  0
    4.9197    0.1098   -2.2156 O   0  0  0  0  0  0  0  0  0  0  0  0
    3.0753   -3.1761    0.7015 N   0  0  0  0  0  0  0  0  0  0  0  0
   -0.6499    1.5849    0.4626 C   0  0  0  0  0  0  0  0  0  0  0  0
   -1.9997    2.0053    0.2037 O   0  0  0  0  0  0  0  0  0  0  0  0
   -2.9522    1.4308    0.9937 C   0  0  0  0  0  0  0  0  0  0  0  0
   -2.7298    0.6086    1.8696 O   0  0  0  0  0  0  0  0  0  0  0  0
   -4.3113    1.9667    0.6142 C   0  0  0  0  0  0  0  0  0  0  0  0
   -5.4284    1.2619    1.3629 C   0  0  0  0  0  0  0  0  0  0  0  0
   -0.2683   -1.5830   -1.8128 H   0  0  0  0  0  0  0  0  0  0  0  0
    0.1405    1.1462   -2.1691 H   0  0  0  0  0  0  0  0  0  0  0  0
   -1.5464    0.6318   -1.9949 H   0  0  0  0  0  0  0  0  0  0  0  0
   -1.0016   -0.5269    0.1307 H   0  0  0  0  0  0  0  0  0  0  0  0
    1.7882    0.5129    0.0269 H   0  0  0  0  0  0  0  0  0  0  0  0
    3.2732   -1.1195    1.0563 H   0  0  0  0  0  0  0  0  0  0  0  0
    4.6998   -2.0418   -0.9491 H   0  0  0  0  0  0  0  0  0  0  0  0
    3.1980   -1.9640   -1.9082 H   0  0  0  0  0  0  0  0  0  0  0  0
    4.9989    1.0818   -2.3082 H   0  0  0  0  0  0  0  0  0  0  0  0
    2.6036   -3.7741    0.0142 H   0  0  0  0  0  0  0  0  0  0  0  0
    2.5115   -3.2994    1.5460 H   0  0  0  0  0  0  0  0  0  0  0  0
   -0.4652    1.5308    1.5433 H   0  0  0  0  0  0  0  0  0  0  0  0
    0.0072    2.3767    0.0837 H   0  0  0  0  0  0  0  0  0  0  0  0
   -4.3367    3.0374    0.8387 H   0  0  0  0  0  0  0  0  0  0  0  0
   -4.4534    1.8217   -0.4614 H   0  0  0  0  0  0  0  0  0  0  0  0
   -5.3299    1.4062    2.4432 H   0  0  0  0  0  0  0  0  0  0  0  0
   -5.4121    0.1847    1.1676 H   0  0  0  0  0  0  0  0  0  0  0  0
   -6.4025    1.6530    1.0529 H   0  0  0  0  0  0  0  0  0  0  0  0
  1  2  1  0
  2  3  1  0
  3  4  1  0
  4  5  1  0
  5  6  2  0
  5  7  1  0
  7  8  1  0
  8  9  1  0
  9 10  2  0
  9 11  1  0
  7 12  1  0
  3 13  1  0
 13 14  1  0
 14 15  1  0
 15 16  2  0
 15 17  1  0
 17 18  1  0
  1 19  1  0
  2 20  1  0
  2 21  1  0
  3 22  1  0
  4 23  1  0
  7 24  1  0
  8 25  1  0
  8 26  1  0
 11 27  1  0
 12 28  1  0
 12 29  1  0
 13 30  1  0
 13 31  1  0
 17 32  1  0
 17 33  1  0
 18 34  1  0
 18 35  1  0
 18 36  1  0
M  END
