
     RDKit          3D

 37 37  0  0  0  0  0  0  0  0999 V2000
    0.4400   -0.2010   -1.4841 O   0  0  0  0  0  0  0  0  0  0  0  0
   -0.1903   -0.9678   -0.4481 C   0  0  0  0  0  0  0  0  0  0  0  0
   -0.2427   -0.1984    0.8928 C   0  0  0  0  0  0  0  0  0  0  0  0
    1.1195    0.0321    1.3877 N   0  0  0  0  0  0  0  0  0  0  0  0
    1.8534   -0.9988    1.9430 C   0  0  0  0  0  0  0  0  0  0  0  0
    1.3465   -2.0488    2.3339 O   0  0  0  0  0  0  0  0  0  0  0  0
    3.3792   -0.7388    2.0050 C   0  0  0  0  0  0  0  0  0  0  0  0
    4.0207   -1.0868    0.6583 C   0  0  0  0  0  0  0  0  0  0  0  0
    3.4757   -0.1840   -0.4165 C   0  0  0  0  0  0  0  0  0  0  0  0
    3.1317    0.9799   -0.2654 O   0  0  0  0  0  0  0  0  0  0  0  0
    3.2610   -0.8330   -1.5735 O   0  0  0  0  0  0  0  0  0  0  0  0
    3.9743   -1.5599    3.0830 N   0  0  0  0  0  0  0  0  0  0  0  0
   -0.9869    1.1444    0.8035 C   0  0  0  0  0  0  0  0  0  0  0  0
   -2.3759    0.9835    0.4799 O   0  0  0  0  0  0  0  0  0  0  0  0
   -2.6963    1.1255   -0.8292 C   0  0  0  0  0  0  0  0  0  0  0  0
   -1.8973    1.2454   -1.7501 O   0  0  0  0  0  0  0  0  0  0  0  0
   -4.1688    1.0956   -1.0224 C   0  0  0  0  0  0  0  0  0  0  0  0
   -4.7685    0.4809   -2.2661 C   0  0  0  0  0  0  0  0  0  0  0  0
   -4.8153    1.9717   -2.0679 C   0  0  0  0  0  0  0  0  0  0  0  0
   -0.2350    0.4421   -1.8005 H   0  0  0  0  0  0  0  0  0  0  0  0
    0.3938   -1.8870   -0.3341 H   0  0  0  0  0  0  0  0  0  0  0  0
   -1.1874   -1.2626   -0.7872 H   0  0  0  0  0  0  0  0  0  0  0  0
   -0.7626   -0.8396    1.6171 H   0  0  0  0  0  0  0  0  0  0  0  0
    1.6488    0.7489    0.8850 H   0  0  0  0  0  0  0  0  0  0  0  0
    3.5454    0.3155    2.2560 H   0  0  0  0  0  0  0  0  0  0  0  0
    3.7888   -2.1271    0.3850 H   0  0  0  0  0  0  0  0  0  0  0  0
    5.1079   -0.9632    0.6904 H   0  0  0  0  0  0  0  0  0  0  0  0
    2.5781   -0.2992   -2.0419 H   0  0  0  0  0  0  0  0  0  0  0  0
    3.5112   -1.3153    3.9636 H   0  0  0  0  0  0  0  0  0  0  0  0
    3.6853   -2.5340    2.9313 H   0  0  0  0  0  0  0  0  0  0  0  0
   -0.4874    1.8462    0.1217 H   0  0  0  0  0  0  0  0  0  0  0  0
   -0.9576    1.6357    1.7870 H   0  0  0  0  0  0  0  0  0  0  0  0
   -4.7334    0.9705   -0.0975 H   0  0  0  0  0  0  0  0  0  0  0  0
   -4.1039    0.0984   -3.0332 H   0  0  0  0  0  0  0  0  0  0  0  0
   -5.6926   -0.0758   -2.1612 H   0  0  0  0  0  0  0  0  0  0  0  0
   -4.1853    2.5813   -2.7109 H   0  0  0  0  0  0  0  0  0  0  0  0
   -5.7739    2.4235   -1.8312 H   0  0  0  0  0  0  0  0  0  0  0  0
  1  2  1  0
  2  3  1  0
  3  4  1  0
  4  5  1  0
  5  6  2  0
  5  7  1  0
  7  8  1  0
  8  9  1  0
  9 10  2  0
  9 11  1  0
  7 12  1  0
  3 13  1  0
 13 14  1  0
 14 15  1  0
 15 16  2  0
 15 17  1  0
 17 18  1  0
 18 19  1  0
 19 17  1  0
  1 20  1  0
  2 21  1  0
  2 22  1  0
  3 23  1  0
  4 24  1  0
  7 25  1  0
  8 26  1  0
  8 27  1  0
 11 28  1  0
 12 29  1  0
 12 30  1  0
 13 31  1  0
 13 32  1  0
 17 33  1  0
 18 34  1  0
 18 35  1  0
 19 36  1  0
 19 37  1  0
M  END
