
     RDKit          3D

 39 38  0  0  0  0  0  0  0  0999 V2000
   -0.5760   -3.6946    1.3214 O   0  0  0  0  0  0  0  0  0  0  0  0
   -0.2286   -2.6195    2.1938 C   0  0  0  0  0  0  0  0  0  0  0  0
    0.4154   -1.4679    1.4062 C   0  0  0  0  0  0  0  0  0  0  0  0
   -0.5177   -0.9569    0.4017 N   0  0  0  0  0  0  0  0  0  0  0  0
   -1.5815   -0.1404    0.7093 C   0  0  0  0  0  0  0  0  0  0  0  0
   -1.8450    0.2156    1.8537 O   0  0  0  0  0  0  0  0  0  0  0  0
   -2.4192    0.2517   -0.5276 C   0  0  0  0  0  0  0  0  0  0  0  0
   -3.4977    1.2691   -0.1605 C   0  0  0  0  0  0  0  0  0  0  0  0
   -2.8692    2.5888    0.1930 C   0  0  0  0  0  0  0  0  0  0  0  0
   -1.7477    2.9710   -0.0953 O   0  0  0  0  0  0  0  0  0  0  0  0
   -3.7239    3.3968    0.8502 O   0  0  0  0  0  0  0  0  0  0  0  0
   -3.0178   -0.9881   -1.0843 N   0  0  0  0  0  0  0  0  0  0  0  0
    1.7327   -1.9259    0.7529 C   0  0  0  0  0  0  0  0  0  0  0  0
    2.4467   -0.7990    0.2035 O   0  0  0  0  0  0  0  0  0  0  0  0
    2.1138   -0.4411   -1.0667 C   0  0  0  0  0  0  0  0  0  0  0  0
    1.2749   -1.0097   -1.7571 O   0  0  0  0  0  0  0  0  0  0  0  0
    2.8476    0.8099   -1.5064 C   0  0  0  0  0  0  0  0  0  0  0  0
    4.3285    0.7695   -1.1435 C   0  0  0  0  0  0  0  0  0  0  0  0
    2.1559    2.0356   -0.9218 C   0  0  0  0  0  0  0  0  0  0  0  0
   -1.1909   -3.3162    0.6643 H   0  0  0  0  0  0  0  0  0  0  0  0
    0.4622   -3.0068    2.9494 H   0  0  0  0  0  0  0  0  0  0  0  0
   -1.1397   -2.2955    2.7072 H   0  0  0  0  0  0  0  0  0  0  0  0
    0.6276   -0.6414    2.0955 H   0  0  0  0  0  0  0  0  0  0  0  0
   -0.4052   -1.2439   -0.5724 H   0  0  0  0  0  0  0  0  0  0  0  0
   -1.7352    0.6674   -1.2776 H   0  0  0  0  0  0  0  0  0  0  0  0
   -4.1695    1.4431   -1.0089 H   0  0  0  0  0  0  0  0  0  0  0  0
   -4.0919    0.9176    0.6912 H   0  0  0  0  0  0  0  0  0  0  0  0
   -3.1983    4.2022    1.0397 H   0  0  0  0  0  0  0  0  0  0  0  0
   -3.6933   -1.3579   -0.4130 H   0  0  0  0  0  0  0  0  0  0  0  0
   -3.5547   -0.7537   -1.9194 H   0  0  0  0  0  0  0  0  0  0  0  0
    1.5735   -2.6928   -0.0152 H   0  0  0  0  0  0  0  0  0  0  0  0
    2.3912   -2.3639    1.5110 H   0  0  0  0  0  0  0  0  0  0  0  0
    2.7756    0.8488   -2.6007 H   0  0  0  0  0  0  0  0  0  0  0  0
    4.7952   -0.1492   -1.5150 H   0  0  0  0  0  0  0  0  0  0  0  0
    4.8569    1.6214   -1.5841 H   0  0  0  0  0  0  0  0  0  0  0  0
    4.4824    0.8051   -0.0595 H   0  0  0  0  0  0  0  0  0  0  0  0
    2.2052    2.0384    0.1728 H   0  0  0  0  0  0  0  0  0  0  0  0
    1.0967    2.0553   -1.2015 H   0  0  0  0  0  0  0  0  0  0  0  0
    2.6208    2.9571   -1.2866 H   0  0  0  0  0  0  0  0  0  0  0  0
  1  2  1  0
  2  3  1  0
  3  4  1  0
  4  5  1  0
  5  6  2  0
  5  7  1  0
  7  8  1  0
  8  9  1  0
  9 10  2  0
  9 11  1  0
  7 12  1  0
  3 13  1  0
 13 14  1  0
 14 15  1  0
 15 16  2  0
 15 17  1  0
 17 18  1  0
 17 19  1  0
  1 20  1  0
  2 21  1  0
  2 22  1  0
  3 23  1  0
  4 24  1  0
  7 25  1  0
  8 26  1  0
  8 27  1  0
 11 28  1  0
 12 29  1  0
 12 30  1  0
 13 31  1  0
 13 32  1  0
 17 33  1  0
 18 34  1  0
 18 35  1  0
 18 36  1  0
 19 37  1  0
 19 38  1  0
 19 39  1  0
M  END
