
     RDKit          3D

 39 38  0  0  0  0  0  0  0  0999 V2000
    3.7990   -4.0035    2.0105 C   0  0  0  0  0  0  0  0  0  0  0  0
    2.5603   -4.2175    1.1509 C   0  0  0  0  0  0  0  0  0  0  0  0
    1.5983   -3.0317    1.1938 C   0  0  0  0  0  0  0  0  0  0  0  0
    2.0991   -1.8292    0.4287 C   0  0  0  0  0  0  0  0  0  0  0  0
    3.0533   -1.8169   -0.3340 O   0  0  0  0  0  0  0  0  0  0  0  0
    1.3009   -0.7574    0.6960 O   0  0  0  0  0  0  0  0  0  0  0  0
    1.6547    0.4384   -0.0225 C   0  0  0  0  0  0  0  0  0  0  0  0
    0.6765    1.5584    0.3718 C   0  0  0  0  0  0  0  0  0  0  0  0
   -0.7007    1.1986    0.0090 N   0  0  0  0  0  0  0  0  0  0  0  0
   -1.7952    1.8269    0.5520 C   0  0  0  0  0  0  0  0  0  0  0  0
   -1.6975    2.7488    1.3608 O   0  0  0  0  0  0  0  0  0  0  0  0
   -3.1656    1.2883    0.0729 C   0  0  0  0  0  0  0  0  0  0  0  0
   -3.5120    1.8415   -1.3093 C   0  0  0  0  0  0  0  0  0  0  0  0
   -2.8267    1.0579   -2.3937 C   0  0  0  0  0  0  0  0  0  0  0  0
   -1.8720    0.3084   -2.2605 O   0  0  0  0  0  0  0  0  0  0  0  0
   -3.3557    1.2922   -3.6085 O   0  0  0  0  0  0  0  0  0  0  0  0
   -4.2022    1.7073    1.0485 N   0  0  0  0  0  0  0  0  0  0  0  0
    1.0826    2.8895   -0.2837 C   0  0  0  0  0  0  0  0  0  0  0  0
    1.0495    2.7880   -1.7068 O   0  0  0  0  0  0  0  0  0  0  0  0
    4.3805   -3.1422    1.6692 H   0  0  0  0  0  0  0  0  0  0  0  0
    3.5246   -3.8429    3.0575 H   0  0  0  0  0  0  0  0  0  0  0  0
    4.4434   -4.8869    1.9628 H   0  0  0  0  0  0  0  0  0  0  0  0
    2.8648   -4.4281    0.1192 H   0  0  0  0  0  0  0  0  0  0  0  0
    2.0364   -5.1090    1.5168 H   0  0  0  0  0  0  0  0  0  0  0  0
    1.4108   -2.7421    2.2337 H   0  0  0  0  0  0  0  0  0  0  0  0
    0.6479   -3.3318    0.7379 H   0  0  0  0  0  0  0  0  0  0  0  0
    2.6790    0.7250    0.2443 H   0  0  0  0  0  0  0  0  0  0  0  0
    1.5978    0.2366   -1.0995 H   0  0  0  0  0  0  0  0  0  0  0  0
    0.6939    1.6804    1.4627 H   0  0  0  0  0  0  0  0  0  0  0  0
   -0.8435    0.4955   -0.7174 H   0  0  0  0  0  0  0  0  0  0  0  0
   -3.1318    0.1932    0.0702 H   0  0  0  0  0  0  0  0  0  0  0  0
   -3.2243    2.8950   -1.4092 H   0  0  0  0  0  0  0  0  0  0  0  0
   -4.5917    1.7483   -1.4838 H   0  0  0  0  0  0  0  0  0  0  0  0
   -2.8365    0.7478   -4.2376 H   0  0  0  0  0  0  0  0  0  0  0  0
   -4.1274    2.7239    1.1605 H   0  0  0  0  0  0  0  0  0  0  0  0
   -3.9247    1.3559    1.9681 H   0  0  0  0  0  0  0  0  0  0  0  0
    2.0992    3.1711    0.0099 H   0  0  0  0  0  0  0  0  0  0  0  0
    0.4132    3.7040    0.0081 H   0  0  0  0  0  0  0  0  0  0  0  0
    0.1421    2.5184   -1.9385 H   0  0  0  0  0  0  0  0  0  0  0  0
  1  2  1  0
  2  3  1  0
  3  4  1  0
  4  5  2  0
  4  6  1  0
  6  7  1  0
  7  8  1  0
  8  9  1  0
  9 10  1  0
 10 11  2  0
 10 12  1  0
 12 13  1  0
 13 14  1  0
 14 15  2  0
 14 16  1  0
 12 17  1  0
  8 18  1  0
 18 19  1  0
  1 20  1  0
  1 21  1  0
  1 22  1  0
  2 23  1  0
  2 24  1  0
  3 25  1  0
  3 26  1  0
  7 27  1  0
  7 28  1  0
  8 29  1  0
  9 30  1  0
 12 31  1  0
 13 32  1  0
 13 33  1  0
 16 34  1  0
 17 35  1  0
 17 36  1  0
 18 37  1  0
 18 38  1  0
 19 39  1  0
M  END
