
     RDKit          3D

 40 40  0  0  0  0  0  0  0  0999 V2000
    0.5855   -1.5219   -3.2316 O   0  0  0  0  0  0  0  0  0  0  0  0
   -0.3057   -0.4470   -2.9429 C   0  0  0  0  0  0  0  0  0  0  0  0
   -0.4827   -0.1941   -1.4315 C   0  0  0  0  0  0  0  0  0  0  0  0
    0.8065    0.0622   -0.7773 N   0  0  0  0  0  0  0  0  0  0  0  0
    1.6812   -0.9532   -0.4717 C   0  0  0  0  0  0  0  0  0  0  0  0
    1.3960   -2.1402   -0.6376 O   0  0  0  0  0  0  0  0  0  0  0  0
    3.0515   -0.4956    0.0816 C   0  0  0  0  0  0  0  0  0  0  0  0
    3.9781   -0.0874   -1.0648 C   0  0  0  0  0  0  0  0  0  0  0  0
    3.6844    1.3103   -1.5331 C   0  0  0  0  0  0  0  0  0  0  0  0
    2.6763    1.9620   -1.3079 O   0  0  0  0  0  0  0  0  0  0  0  0
    4.6721    1.8107   -2.2993 O   0  0  0  0  0  0  0  0  0  0  0  0
    3.6559   -1.6247    0.8326 N   0  0  0  0  0  0  0  0  0  0  0  0
   -1.4457    0.9847   -1.2099 C   0  0  0  0  0  0  0  0  0  0  0  0
   -1.6799    1.2068    0.1937 O   0  0  0  0  0  0  0  0  0  0  0  0
   -2.5896    0.3733    0.7825 C   0  0  0  0  0  0  0  0  0  0  0  0
   -3.2054   -0.4868    0.1569 O   0  0  0  0  0  0  0  0  0  0  0  0
   -2.7186    0.6618    2.3002 C   0  0  0  0  0  0  0  0  0  0  0  0
   -4.1417    0.6562    2.9201 C   0  0  0  0  0  0  0  0  0  0  0  0
   -3.5199    0.0225    4.1786 C   0  0  0  0  0  0  0  0  0  0  0  0
   -2.3910   -0.5029    3.2719 C   0  0  0  0  0  0  0  0  0  0  0  0
    0.6466   -2.0906   -2.4351 H   0  0  0  0  0  0  0  0  0  0  0  0
   -1.2707   -0.6869   -3.4009 H   0  0  0  0  0  0  0  0  0  0  0  0
    0.0908    0.4447   -3.4408 H   0  0  0  0  0  0  0  0  0  0  0  0
   -0.8855   -1.1026   -0.9690 H   0  0  0  0  0  0  0  0  0  0  0  0
    1.1878    1.0086   -0.8356 H   0  0  0  0  0  0  0  0  0  0  0  0
    2.8938    0.3282    0.7869 H   0  0  0  0  0  0  0  0  0  0  0  0
    3.8824   -0.7657   -1.9203 H   0  0  0  0  0  0  0  0  0  0  0  0
    5.0196   -0.0991   -0.7191 H   0  0  0  0  0  0  0  0  0  0  0  0
    4.3789    2.7094   -2.5577 H   0  0  0  0  0  0  0  0  0  0  0  0
    3.0047   -1.8955    1.5730 H   0  0  0  0  0  0  0  0  0  0  0  0
    3.6537   -2.4408    0.2117 H   0  0  0  0  0  0  0  0  0  0  0  0
   -1.0076    1.9104   -1.6009 H   0  0  0  0  0  0  0  0  0  0  0  0
   -2.3973    0.8366   -1.7353 H   0  0  0  0  0  0  0  0  0  0  0  0
   -2.1713    1.5754    2.5804 H   0  0  0  0  0  0  0  0  0  0  0  0
   -4.5982    1.6384    3.0678 H   0  0  0  0  0  0  0  0  0  0  0  0
   -4.8585    0.0050    2.4064 H   0  0  0  0  0  0  0  0  0  0  0  0
   -4.1210   -0.7412    4.6771 H   0  0  0  0  0  0  0  0  0  0  0  0
   -3.1833    0.7554    4.9209 H   0  0  0  0  0  0  0  0  0  0  0  0
   -1.3899   -0.4845    3.7090 H   0  0  0  0  0  0  0  0  0  0  0  0
   -2.5821   -1.5019    2.8621 H   0  0  0  0  0  0  0  0  0  0  0  0
  1  2  1  0
  2  3  1  0
  3  4  1  0
  4  5  1  0
  5  6  2  0
  5  7  1  0
  7  8  1  0
  8  9  1  0
  9 10  2  0
  9 11  1  0
  7 12  1  0
  3 13  1  0
 13 14  1  0
 14 15  1  0
 15 16  2  0
 15 17  1  0
 17 18  1  0
 18 19  1  0
 19 20  1  0
 20 17  1  0
  1 21  1  0
  2 22  1  0
  2 23  1  0
  3 24  1  0
  4 25  1  0
  7 26  1  0
  8 27  1  0
  8 28  1  0
 11 29  1  0
 12 30  1  0
 12 31  1  0
 13 32  1  0
 13 33  1  0
 17 34  1  0
 18 35  1  0
 18 36  1  0
 19 37  1  0
 19 38  1  0
 20 39  1  0
 20 40  1  0
M  END
