
     RDKit          3D

 19 19  0  0  0  0  0  0  0  0999 V2000
    3.1825   -0.0267   -0.1415 N   0  0  0  0  0  0  0  0  0  0  0  0
    1.7904    0.0954   -0.1709 C   0  0  0  0  0  0  0  0  0  0  0  0
    1.1973    1.3461   -0.3596 C   0  0  0  0  0  0  0  0  0  0  0  0
   -0.1913    1.5105   -0.2775 C   0  0  0  0  0  0  0  0  0  0  0  0
   -1.0257    0.4290    0.0345 C   0  0  0  0  0  0  0  0  0  0  0  0
   -0.4089   -0.8056    0.3025 C   0  0  0  0  0  0  0  0  0  0  0  0
    0.9827   -0.9733    0.2121 C   0  0  0  0  0  0  0  0  0  0  0  0
   -1.1919   -1.9706    0.6981 N   0  0  0  0  0  4  0  0  0  0  0  0
   -2.0256   -1.8245    1.6020 O   0  0  0  0  0  1  0  0  0  0  0  0
   -0.9549   -3.0353    0.1099 O   0  0  0  0  0  0  0  0  0  0  0  0
   -2.5102    0.6480    0.1086 C   0  0  0  0  0  0  0  0  0  0  0  0
    3.5263   -0.9680   -0.3081 H   0  0  0  0  0  0  0  0  0  0  0  0
    3.6742    0.6638   -0.7012 H   0  0  0  0  0  0  0  0  0  0  0  0
    1.8157    2.2145   -0.5771 H   0  0  0  0  0  0  0  0  0  0  0  0
   -0.6121    2.4993   -0.4524 H   0  0  0  0  0  0  0  0  0  0  0  0
    1.4331   -1.9355    0.4453 H   0  0  0  0  0  0  0  0  0  0  0  0
   -2.8305    0.7327    1.1515 H   0  0  0  0  0  0  0  0  0  0  0  0
   -3.0516   -0.1689   -0.3792 H   0  0  0  0  0  0  0  0  0  0  0  0
   -2.7993    1.5691   -0.4095 H   0  0  0  0  0  0  0  0  0  0  0  0
  1  2  1  0
  2  3  2  0
  3  4  1  0
  4  5  2  0
  5  6  1  0
  6  7  2  0
  6  8  1  0
  8  9  1  0
  8 10  2  0
  5 11  1  0
  7  2  1  0
  1 12  1  0
  1 13  1  0
  3 14  1  0
  4 15  1  0
  7 16  1  0
 11 17  1  0
 11 18  1  0
 11 19  1  0
M  CHG  2   8   1   9  -1
M  END
