
     RDKit          3D

 42 41  0  0  0  0  0  0  0  0999 V2000
    2.2682   -2.9191   -1.6599 O   0  0  0  0  0  0  0  0  0  0  0  0
    1.7311   -3.0066   -0.3412 C   0  0  0  0  0  0  0  0  0  0  0  0
    0.9027   -1.7562   -0.0155 C   0  0  0  0  0  0  0  0  0  0  0  0
    1.7680   -0.5698   -0.0335 N   0  0  0  0  0  0  0  0  0  0  0  0
    1.4931    0.5564    0.7047 C   0  0  0  0  0  0  0  0  0  0  0  0
    0.5993    0.6040    1.5496 O   0  0  0  0  0  0  0  0  0  0  0  0
    2.4049    1.7735    0.4051 C   0  0  0  0  0  0  0  0  0  0  0  0
    3.8190    1.5375    0.9360 C   0  0  0  0  0  0  0  0  0  0  0  0
    4.6274    0.7105   -0.0224 C   0  0  0  0  0  0  0  0  0  0  0  0
    4.2499    0.2249   -1.0765 O   0  0  0  0  0  0  0  0  0  0  0  0
    5.8892    0.5196    0.4084 O   0  0  0  0  0  0  0  0  0  0  0  0
    1.8243    2.9717    1.0666 N   0  0  0  0  0  0  0  0  0  0  0  0
   -0.2584   -1.5991   -1.0196 C   0  0  0  0  0  0  0  0  0  0  0  0
   -1.1836   -0.5774   -0.6055 O   0  0  0  0  0  0  0  0  0  0  0  0
   -2.0458   -0.9477    0.3806 C   0  0  0  0  0  0  0  0  0  0  0  0
   -2.1104   -2.0673    0.8727 O   0  0  0  0  0  0  0  0  0  0  0  0
   -2.9097    0.2144    0.8053 C   0  0  0  0  0  0  0  0  0  0  0  0
   -3.7767    0.7679   -0.3339 C   0  0  0  0  0  0  0  0  0  0  0  0
   -4.8008   -0.2636   -0.8147 C   0  0  0  0  0  0  0  0  0  0  0  0
   -4.4929    2.0388    0.1266 C   0  0  0  0  0  0  0  0  0  0  0  0
    2.8204   -3.7097   -1.7942 H   0  0  0  0  0  0  0  0  0  0  0  0
    1.1126   -3.9078   -0.2791 H   0  0  0  0  0  0  0  0  0  0  0  0
    2.5667   -3.1050    0.3598 H   0  0  0  0  0  0  0  0  0  0  0  0
    0.5084   -1.8542    1.0019 H   0  0  0  0  0  0  0  0  0  0  0  0
    2.4175   -0.4997   -0.8187 H   0  0  0  0  0  0  0  0  0  0  0  0
    2.3969    1.9565   -0.6757 H   0  0  0  0  0  0  0  0  0  0  0  0
    3.7967    1.0289    1.9066 H   0  0  0  0  0  0  0  0  0  0  0  0
    4.3443    2.4943    1.0460 H   0  0  0  0  0  0  0  0  0  0  0  0
    6.3164   -0.0155   -0.2931 H   0  0  0  0  0  0  0  0  0  0  0  0
    1.6638    2.7277    2.0498 H   0  0  0  0  0  0  0  0  0  0  0  0
    0.8738    3.0889    0.7055 H   0  0  0  0  0  0  0  0  0  0  0  0
    0.1212   -1.2937   -2.0016 H   0  0  0  0  0  0  0  0  0  0  0  0
   -0.7951   -2.5447   -1.1663 H   0  0  0  0  0  0  0  0  0  0  0  0
   -2.2454    0.9907    1.2053 H   0  0  0  0  0  0  0  0  0  0  0  0
   -3.5411   -0.1193    1.6386 H   0  0  0  0  0  0  0  0  0  0  0  0
   -3.1370    1.0320   -1.1851 H   0  0  0  0  0  0  0  0  0  0  0  0
   -4.3083   -1.1604   -1.2051 H   0  0  0  0  0  0  0  0  0  0  0  0
   -5.4695   -0.5696   -0.0022 H   0  0  0  0  0  0  0  0  0  0  0  0
   -5.4165    0.1504   -1.6212 H   0  0  0  0  0  0  0  0  0  0  0  0
   -3.7711    2.8029    0.4347 H   0  0  0  0  0  0  0  0  0  0  0  0
   -5.1547    1.8359    0.9752 H   0  0  0  0  0  0  0  0  0  0  0  0
   -5.0990    2.4590   -0.6828 H   0  0  0  0  0  0  0  0  0  0  0  0
  1  2  1  0
  2  3  1  0
  3  4  1  0
  4  5  1  0
  5  6  2  0
  5  7  1  0
  7  8  1  0
  8  9  1  0
  9 10  2  0
  9 11  1  0
  7 12  1  0
  3 13  1  0
 13 14  1  0
 14 15  1  0
 15 16  2  0
 15 17  1  0
 17 18  1  0
 18 19  1  0
 18 20  1  0
  1 21  1  0
  2 22  1  0
  2 23  1  0
  3 24  1  0
  4 25  1  0
  7 26  1  0
  8 27  1  0
  8 28  1  0
 11 29  1  0
 12 30  1  0
 12 31  1  0
 13 32  1  0
 13 33  1  0
 17 34  1  0
 17 35  1  0
 18 36  1  0
 19 37  1  0
 19 38  1  0
 19 39  1  0
 20 40  1  0
 20 41  1  0
 20 42  1  0
M  END
