
     RDKit          3D

 42 41  0  0  0  0  0  0  0  0999 V2000
    1.0165    0.3941   -2.1198 O   0  0  0  0  0  0  0  0  0  0  0  0
    0.1592    0.4761   -0.9788 C   0  0  0  0  0  0  0  0  0  0  0  0
    0.4937   -0.5847    0.0931 C   0  0  0  0  0  0  0  0  0  0  0  0
    1.9102   -0.5214    0.4694 N   0  0  0  0  0  0  0  0  0  0  0  0
    2.8847   -1.0757   -0.3313 C   0  0  0  0  0  0  0  0  0  0  0  0
    2.6167   -1.7782   -1.3069 O   0  0  0  0  0  0  0  0  0  0  0  0
    4.3373   -0.7315    0.0725 C   0  0  0  0  0  0  0  0  0  0  0  0
    4.7483    0.6086   -0.5405 C   0  0  0  0  0  0  0  0  0  0  0  0
    4.1545    1.7609    0.2196 C   0  0  0  0  0  0  0  0  0  0  0  0
    3.3471    1.6953    1.1338 O   0  0  0  0  0  0  0  0  0  0  0  0
    4.6014    2.9496   -0.2261 O   0  0  0  0  0  0  0  0  0  0  0  0
    5.2330   -1.8047   -0.4243 N   0  0  0  0  0  0  0  0  0  0  0  0
   -0.3986   -0.4435    1.3359 C   0  0  0  0  0  0  0  0  0  0  0  0
   -1.7540   -0.8386    1.0643 O   0  0  0  0  0  0  0  0  0  0  0  0
   -2.6505    0.1663    0.8617 C   0  0  0  0  0  0  0  0  0  0  0  0
   -2.3692    1.3551    0.8294 O   0  0  0  0  0  0  0  0  0  0  0  0
   -4.0478   -0.4051    0.7019 C   0  0  0  0  0  0  0  0  0  0  0  0
   -4.8585    0.3706   -0.3454 C   0  0  0  0  0  0  0  0  0  0  0  0
   -4.3091    0.2032   -1.7559 C   0  0  0  0  0  0  0  0  0  0  0  0
   -4.7382   -0.3669    2.0619 C   0  0  0  0  0  0  0  0  0  0  0  0
    1.3171   -0.5346   -2.2042 H   0  0  0  0  0  0  0  0  0  0  0  0
    0.2622    1.4865   -0.5693 H   0  0  0  0  0  0  0  0  0  0  0  0
   -0.8657    0.3526   -1.3371 H   0  0  0  0  0  0  0  0  0  0  0  0
    0.3200   -1.5712   -0.3558 H   0  0  0  0  0  0  0  0  0  0  0  0
    2.1991    0.2710    1.0473 H   0  0  0  0  0  0  0  0  0  0  0  0
    4.4096   -0.7133    1.1658 H   0  0  0  0  0  0  0  0  0  0  0  0
    4.4259    0.6807   -1.5855 H   0  0  0  0  0  0  0  0  0  0  0  0
    5.8386    0.7202   -0.4949 H   0  0  0  0  0  0  0  0  0  0  0  0
    4.1371    3.6230    0.3130 H   0  0  0  0  0  0  0  0  0  0  0  0
    4.9130   -2.6913   -0.0299 H   0  0  0  0  0  0  0  0  0  0  0  0
    5.0551   -1.9137   -1.4276 H   0  0  0  0  0  0  0  0  0  0  0  0
   -0.0393   -1.1236    2.1176 H   0  0  0  0  0  0  0  0  0  0  0  0
   -0.3363    0.5648    1.7643 H   0  0  0  0  0  0  0  0  0  0  0  0
   -3.9660   -1.4492    0.3744 H   0  0  0  0  0  0  0  0  0  0  0  0
   -4.8861    1.4381   -0.0977 H   0  0  0  0  0  0  0  0  0  0  0  0
   -5.8965    0.0147   -0.3362 H   0  0  0  0  0  0  0  0  0  0  0  0
   -3.3030    0.6220   -1.8462 H   0  0  0  0  0  0  0  0  0  0  0  0
   -4.2702   -0.8531   -2.0400 H   0  0  0  0  0  0  0  0  0  0  0  0
   -4.9511    0.7226   -2.4742 H   0  0  0  0  0  0  0  0  0  0  0  0
   -5.7357   -0.8140    2.0064 H   0  0  0  0  0  0  0  0  0  0  0  0
   -4.8440    0.6603    2.4276 H   0  0  0  0  0  0  0  0  0  0  0  0
   -4.1604   -0.9221    2.8090 H   0  0  0  0  0  0  0  0  0  0  0  0
  1  2  1  0
  2  3  1  0
  3  4  1  0
  4  5  1  0
  5  6  2  0
  5  7  1  0
  7  8  1  0
  8  9  1  0
  9 10  2  0
  9 11  1  0
  7 12  1  0
  3 13  1  0
 13 14  1  0
 14 15  1  0
 15 16  2  0
 15 17  1  0
 17 18  1  0
 18 19  1  0
 17 20  1  0
  1 21  1  0
  2 22  1  0
  2 23  1  0
  3 24  1  0
  4 25  1  0
  7 26  1  0
  8 27  1  0
  8 28  1  0
 11 29  1  0
 12 30  1  0
 12 31  1  0
 13 32  1  0
 13 33  1  0
 17 34  1  0
 18 35  1  0
 18 36  1  0
 19 37  1  0
 19 38  1  0
 19 39  1  0
 20 40  1  0
 20 41  1  0
 20 42  1  0
M  END
