
     RDKit          3D

 43 43  0  0  0  0  0  0  0  0999 V2000
    0.3623    1.2587    2.4764 O   0  0  0  0  0  0  0  0  0  0  0  0
    0.1763    1.3142    1.0592 C   0  0  0  0  0  0  0  0  0  0  0  0
    0.3536   -0.0892    0.4488 C   0  0  0  0  0  0  0  0  0  0  0  0
    1.6682   -0.6560    0.7522 N   0  0  0  0  0  0  0  0  0  0  0  0
    2.8543   -0.0877    0.3362 C   0  0  0  0  0  0  0  0  0  0  0  0
    2.9194    0.8347   -0.4702 O   0  0  0  0  0  0  0  0  0  0  0  0
    4.0918   -0.7581    0.9818 C   0  0  0  0  0  0  0  0  0  0  0  0
    5.3275    0.1263    0.8343 C   0  0  0  0  0  0  0  0  0  0  0  0
    5.7978    0.1451   -0.5938 C   0  0  0  0  0  0  0  0  0  0  0  0
    5.6929   -0.7540   -1.4108 O   0  0  0  0  0  0  0  0  0  0  0  0
    6.4512    1.2829   -0.8993 O   0  0  0  0  0  0  0  0  0  0  0  0
    3.7886   -1.0229    2.4153 N   0  0  0  0  0  0  0  0  0  0  0  0
    0.0421   -0.0873   -1.0587 C   0  0  0  0  0  0  0  0  0  0  0  0
   -1.3168    0.3117   -1.3250 O   0  0  0  0  0  0  0  0  0  0  0  0
   -2.2614   -0.6603   -1.1707 C   0  0  0  0  0  0  0  0  0  0  0  0
   -2.0323   -1.8046   -0.8089 O   0  0  0  0  0  0  0  0  0  0  0  0
   -3.6313   -0.0992   -1.5142 C   0  0  0  0  0  0  0  0  0  0  0  0
   -4.0522    0.9725   -0.4963 C   0  0  0  0  0  0  0  0  0  0  0  0
   -5.3979    0.5214    0.0602 C   0  0  0  0  0  0  0  0  0  0  0  0
   -5.3802   -0.9873   -0.1038 C   0  0  0  0  0  0  0  0  0  0  0  0
   -4.7327   -1.1659   -1.4674 C   0  0  0  0  0  0  0  0  0  0  0  0
    0.2634    2.1683    2.8052 H   0  0  0  0  0  0  0  0  0  0  0  0
    0.8953    2.0300    0.6494 H   0  0  0  0  0  0  0  0  0  0  0  0
   -0.8341    1.6927    0.8743 H   0  0  0  0  0  0  0  0  0  0  0  0
   -0.3540   -0.7542    0.9586 H   0  0  0  0  0  0  0  0  0  0  0  0
    1.7586   -1.1524    1.6360 H   0  0  0  0  0  0  0  0  0  0  0  0
    4.2340   -1.7240    0.4843 H   0  0  0  0  0  0  0  0  0  0  0  0
    5.1050    1.1511    1.1576 H   0  0  0  0  0  0  0  0  0  0  0  0
    6.1586   -0.2539    1.4407 H   0  0  0  0  0  0  0  0  0  0  0  0
    6.6683    1.1897   -1.8515 H   0  0  0  0  0  0  0  0  0  0  0  0
    4.6004   -1.4550    2.8561 H   0  0  0  0  0  0  0  0  0  0  0  0
    3.6478   -0.1320    2.8965 H   0  0  0  0  0  0  0  0  0  0  0  0
    0.6803    0.6255   -1.5906 H   0  0  0  0  0  0  0  0  0  0  0  0
    0.2410   -1.0701   -1.5049 H   0  0  0  0  0  0  0  0  0  0  0  0
   -3.5689    0.3073   -2.5314 H   0  0  0  0  0  0  0  0  0  0  0  0
   -4.1363    1.9581   -0.9670 H   0  0  0  0  0  0  0  0  0  0  0  0
   -3.3273    1.0641    0.3206 H   0  0  0  0  0  0  0  0  0  0  0  0
   -5.5395    0.8271    1.1009 H   0  0  0  0  0  0  0  0  0  0  0  0
   -6.2116    0.9555   -0.5336 H   0  0  0  0  0  0  0  0  0  0  0  0
   -6.3833   -1.4215   -0.0611 H   0  0  0  0  0  0  0  0  0  0  0  0
   -4.7688   -1.4508    0.6792 H   0  0  0  0  0  0  0  0  0  0  0  0
   -5.4737   -0.9612   -2.2509 H   0  0  0  0  0  0  0  0  0  0  0  0
   -4.3764   -2.1893   -1.6185 H   0  0  0  0  0  0  0  0  0  0  0  0
  1  2  1  0
  2  3  1  0
  3  4  1  0
  4  5  1  0
  5  6  2  0
  5  7  1  0
  7  8  1  0
  8  9  1  0
  9 10  2  0
  9 11  1  0
  7 12  1  0
  3 13  1  0
 13 14  1  0
 14 15  1  0
 15 16  2  0
 15 17  1  0
 17 18  1  0
 18 19  1  0
 19 20  1  0
 20 21  1  0
 21 17  1  0
  1 22  1  0
  2 23  1  0
  2 24  1  0
  3 25  1  0
  4 26  1  0
  7 27  1  0
  8 28  1  0
  8 29  1  0
 11 30  1  0
 12 31  1  0
 12 32  1  0
 13 33  1  0
 13 34  1  0
 17 35  1  0
 18 36  1  0
 18 37  1  0
 19 38  1  0
 19 39  1  0
 20 40  1  0
 20 41  1  0
 21 42  1  0
 21 43  1  0
M  END
