
     RDKit          3D

 35 34  0  0  0  0  0  0  0  0999 V2000
    3.1265   -2.3472   -0.1948 C   0  0  0  0  0  0  0  0  0  0  0  0
    1.7125   -2.0063   -0.6403 C   0  0  0  0  0  0  0  0  0  0  0  0
    0.8714   -1.3305    0.4550 C   0  0  0  0  0  0  0  0  0  0  0  0
   -0.4913   -1.1447   -0.0398 N   0  0  0  0  0  0  0  0  0  0  0  0
   -1.5803   -1.0763    0.8029 C   0  0  0  0  0  0  0  0  0  0  0  0
   -1.5138   -1.2761    2.0119 O   0  0  0  0  0  0  0  0  0  0  0  0
   -2.8977   -0.6748    0.1040 C   0  0  0  0  0  0  0  0  0  0  0  0
   -3.2203    0.7985    0.3450 C   0  0  0  0  0  0  0  0  0  0  0  0
   -2.0166    1.6851    0.1892 C   0  0  0  0  0  0  0  0  0  0  0  0
   -1.3927    1.8705   -0.8438 O   0  0  0  0  0  0  0  0  0  0  0  0
   -1.6428    2.2477    1.3540 O   0  0  0  0  0  0  0  0  0  0  0  0
   -2.8358   -1.0029   -1.3441 N   0  0  0  0  0  0  0  0  0  0  0  0
    1.4596    0.0028    0.9647 C   0  0  0  0  0  0  0  0  0  0  0  0
    1.8219    0.8401   -0.1507 O   0  0  0  0  0  0  0  0  0  0  0  0
    1.4867    2.1542   -0.0758 C   0  0  0  0  0  0  0  0  0  0  0  0
    0.9105    2.6986    0.8595 O   0  0  0  0  0  0  0  0  0  0  0  0
    1.9192    2.8622   -1.3234 C   0  0  0  0  0  0  0  0  0  0  0  0
    3.6415   -2.9106   -0.9796 H   0  0  0  0  0  0  0  0  0  0  0  0
    3.1155   -2.9614    0.7110 H   0  0  0  0  0  0  0  0  0  0  0  0
    3.7132   -1.4456    0.0039 H   0  0  0  0  0  0  0  0  0  0  0  0
    1.2139   -2.9348   -0.9477 H   0  0  0  0  0  0  0  0  0  0  0  0
    1.7553   -1.3765   -1.5375 H   0  0  0  0  0  0  0  0  0  0  0  0
    0.8056   -2.0094    1.3149 H   0  0  0  0  0  0  0  0  0  0  0  0
   -0.6419   -0.7455   -0.9666 H   0  0  0  0  0  0  0  0  0  0  0  0
   -3.6938   -1.2949    0.5332 H   0  0  0  0  0  0  0  0  0  0  0  0
   -4.0126    1.1628   -0.3188 H   0  0  0  0  0  0  0  0  0  0  0  0
   -3.6050    0.9153    1.3665 H   0  0  0  0  0  0  0  0  0  0  0  0
   -0.7563    2.6627    1.1943 H   0  0  0  0  0  0  0  0  0  0  0  0
   -2.7055   -2.0121   -1.4382 H   0  0  0  0  0  0  0  0  0  0  0  0
   -3.7373   -0.7948   -1.7737 H   0  0  0  0  0  0  0  0  0  0  0  0
    0.7509    0.4952    1.6395 H   0  0  0  0  0  0  0  0  0  0  0  0
    2.3767   -0.1876    1.5322 H   0  0  0  0  0  0  0  0  0  0  0  0
    1.4243    2.4193   -2.1913 H   0  0  0  0  0  0  0  0  0  0  0  0
    3.0055    2.8012   -1.4264 H   0  0  0  0  0  0  0  0  0  0  0  0
    1.6329    3.9158   -1.2597 H   0  0  0  0  0  0  0  0  0  0  0  0
  1  2  1  0
  2  3  1  0
  3  4  1  0
  4  5  1  0
  5  6  2  0
  5  7  1  0
  7  8  1  0
  8  9  1  0
  9 10  2  0
  9 11  1  0
  7 12  1  0
  3 13  1  0
 13 14  1  0
 14 15  1  0
 15 16  2  0
 15 17  1  0
  1 18  1  0
  1 19  1  0
  1 20  1  0
  2 21  1  0
  2 22  1  0
  3 23  1  0
  4 24  1  0
  7 25  1  0
  8 26  1  0
  8 27  1  0
 11 28  1  0
 12 29  1  0
 12 30  1  0
 13 31  1  0
 13 32  1  0
 17 33  1  0
 17 34  1  0
 17 35  1  0
M  END
