
     RDKit          3D

 38 37  0  0  0  0  0  0  0  0999 V2000
   -0.3433    0.0072   -3.5302 C   0  0  0  0  0  0  0  0  0  0  0  0
    0.4723   -0.4417   -2.3243 C   0  0  0  0  0  0  0  0  0  0  0  0
    0.1102    0.3285   -1.0396 C   0  0  0  0  0  0  0  0  0  0  0  0
   -1.3007    0.1989   -0.6815 N   0  0  0  0  0  0  0  0  0  0  0  0
   -1.8923   -0.9786   -0.2886 C   0  0  0  0  0  0  0  0  0  0  0  0
   -1.2854   -2.0454   -0.2137 O   0  0  0  0  0  0  0  0  0  0  0  0
   -3.3982   -0.8634    0.0579 C   0  0  0  0  0  0  0  0  0  0  0  0
   -3.5832   -0.2914    1.4638 C   0  0  0  0  0  0  0  0  0  0  0  0
   -3.4350    1.2041    1.4689 C   0  0  0  0  0  0  0  0  0  0  0  0
   -3.0597    1.9080    0.5442 O   0  0  0  0  0  0  0  0  0  0  0  0
   -3.7455    1.7414    2.6633 O   0  0  0  0  0  0  0  0  0  0  0  0
   -4.0019   -2.2182   -0.0099 N   0  0  0  0  0  0  0  0  0  0  0  0
    1.0476   -0.0449    0.1258 C   0  0  0  0  0  0  0  0  0  0  0  0
    2.3716    0.4366   -0.1621 O   0  0  0  0  0  0  0  0  0  0  0  0
    3.2663    0.2577    0.8508 C   0  0  0  0  0  0  0  0  0  0  0  0
    3.0079   -0.2358    1.9384 O   0  0  0  0  0  0  0  0  0  0  0  0
    4.6175    0.7768    0.4208 C   0  0  0  0  0  0  0  0  0  0  0  0
    5.6786    0.5523    1.4832 C   0  0  0  0  0  0  0  0  0  0  0  0
   -0.0082   -0.5211   -4.4284 H   0  0  0  0  0  0  0  0  0  0  0  0
   -1.4082   -0.2060   -3.3954 H   0  0  0  0  0  0  0  0  0  0  0  0
   -0.2252    1.0813   -3.7059 H   0  0  0  0  0  0  0  0  0  0  0  0
    1.5338   -0.2914   -2.5547 H   0  0  0  0  0  0  0  0  0  0  0  0
    0.3318   -1.5194   -2.1827 H   0  0  0  0  0  0  0  0  0  0  0  0
    0.2561    1.3964   -1.2504 H   0  0  0  0  0  0  0  0  0  0  0  0
   -1.8471    1.0582   -0.6109 H   0  0  0  0  0  0  0  0  0  0  0  0
   -3.8891   -0.2427   -0.7008 H   0  0  0  0  0  0  0  0  0  0  0  0
   -4.5953   -0.5117    1.8252 H   0  0  0  0  0  0  0  0  0  0  0  0
   -2.8544   -0.7153    2.1644 H   0  0  0  0  0  0  0  0  0  0  0  0
   -3.6119    2.7067    2.5600 H   0  0  0  0  0  0  0  0  0  0  0  0
   -3.4231   -2.8376    0.5683 H   0  0  0  0  0  0  0  0  0  0  0  0
   -3.8495   -2.5800   -0.9546 H   0  0  0  0  0  0  0  0  0  0  0  0
    0.6865    0.4264    1.0486 H   0  0  0  0  0  0  0  0  0  0  0  0
    1.0844   -1.1305    0.2712 H   0  0  0  0  0  0  0  0  0  0  0  0
    4.9116    0.2610   -0.4998 H   0  0  0  0  0  0  0  0  0  0  0  0
    4.5270    1.8492    0.2171 H   0  0  0  0  0  0  0  0  0  0  0  0
    5.4162    1.0633    2.4156 H   0  0  0  0  0  0  0  0  0  0  0  0
    5.7918   -0.5141    1.7060 H   0  0  0  0  0  0  0  0  0  0  0  0
    6.6457    0.9353    1.1428 H   0  0  0  0  0  0  0  0  0  0  0  0
  1  2  1  0
  2  3  1  0
  3  4  1  0
  4  5  1  0
  5  6  2  0
  5  7  1  0
  7  8  1  0
  8  9  1  0
  9 10  2  0
  9 11  1  0
  7 12  1  0
  3 13  1  0
 13 14  1  0
 14 15  1  0
 15 16  2  0
 15 17  1  0
 17 18  1  0
  1 19  1  0
  1 20  1  0
  1 21  1  0
  2 22  1  0
  2 23  1  0
  3 24  1  0
  4 25  1  0
  7 26  1  0
  8 27  1  0
  8 28  1  0
 11 29  1  0
 12 30  1  0
 12 31  1  0
 13 32  1  0
 13 33  1  0
 17 34  1  0
 17 35  1  0
 18 36  1  0
 18 37  1  0
 18 38  1  0
M  END
