
     RDKit          3D

 41 40  0  0  0  0  0  0  0  0999 V2000
   -0.1241   -1.1107   -3.7276 C   0  0  0  0  0  0  0  0  0  0  0  0
   -0.9859   -0.3943   -2.6951 C   0  0  0  0  0  0  0  0  0  0  0  0
   -0.2444    0.7681   -2.0144 C   0  0  0  0  0  0  0  0  0  0  0  0
    0.8711    0.2627   -1.2184 N   0  0  0  0  0  0  0  0  0  0  0  0
    1.9360    1.0696   -0.8849 C   0  0  0  0  0  0  0  0  0  0  0  0
    2.0521    2.2227   -1.3006 O   0  0  0  0  0  0  0  0  0  0  0  0
    3.0113    0.4009    0.0092 C   0  0  0  0  0  0  0  0  0  0  0  0
    2.5743    0.3617    1.4720 C   0  0  0  0  0  0  0  0  0  0  0  0
    1.7086   -0.8364    1.7421 C   0  0  0  0  0  0  0  0  0  0  0  0
    1.0538   -1.4677    0.9255 O   0  0  0  0  0  0  0  0  0  0  0  0
    1.6876   -1.1734    3.0461 O   0  0  0  0  0  0  0  0  0  0  0  0
    4.2698    1.1853   -0.1113 N   0  0  0  0  0  0  0  0  0  0  0  0
   -1.2027    1.6412   -1.1752 C   0  0  0  0  0  0  0  0  0  0  0  0
   -2.0447    0.8406   -0.3237 O   0  0  0  0  0  0  0  0  0  0  0  0
   -1.6330    0.6719    0.9621 C   0  0  0  0  0  0  0  0  0  0  0  0
   -0.6165    1.1499    1.4447 O   0  0  0  0  0  0  0  0  0  0  0  0
   -2.6393   -0.1792    1.7205 C   0  0  0  0  0  0  0  0  0  0  0  0
   -2.2676   -0.2707    3.1989 C   0  0  0  0  0  0  0  0  0  0  0  0
   -2.7352   -1.5741    1.1091 C   0  0  0  0  0  0  0  0  0  0  0  0
    0.2186   -0.4165   -4.5013 H   0  0  0  0  0  0  0  0  0  0  0  0
   -0.7015   -1.9027   -4.2151 H   0  0  0  0  0  0  0  0  0  0  0  0
    0.7540   -1.5726   -3.2651 H   0  0  0  0  0  0  0  0  0  0  0  0
   -1.8819   -0.0122   -3.1986 H   0  0  0  0  0  0  0  0  0  0  0  0
   -1.3191   -1.1264   -1.9501 H   0  0  0  0  0  0  0  0  0  0  0  0
    0.1841    1.4167   -2.7892 H   0  0  0  0  0  0  0  0  0  0  0  0
    0.7125   -0.5635   -0.6400 H   0  0  0  0  0  0  0  0  0  0  0  0
    3.2126   -0.6038   -0.3796 H   0  0  0  0  0  0  0  0  0  0  0  0
    2.0308    1.2673    1.7599 H   0  0  0  0  0  0  0  0  0  0  0  0
    3.4575    0.2705    2.1174 H   0  0  0  0  0  0  0  0  0  0  0  0
    1.0778   -1.9367    3.1041 H   0  0  0  0  0  0  0  0  0  0  0  0
    4.0357    2.1601    0.1046 H   0  0  0  0  0  0  0  0  0  0  0  0
    4.5132    1.2238   -1.1044 H   0  0  0  0  0  0  0  0  0  0  0  0
   -0.6675    2.4082   -0.6038 H   0  0  0  0  0  0  0  0  0  0  0  0
   -1.8813    2.1731   -1.8515 H   0  0  0  0  0  0  0  0  0  0  0  0
   -3.6119    0.3227    1.6489 H   0  0  0  0  0  0  0  0  0  0  0  0
   -2.2102    0.7265    3.6490 H   0  0  0  0  0  0  0  0  0  0  0  0
   -3.0141   -0.8481    3.7543 H   0  0  0  0  0  0  0  0  0  0  0  0
   -1.2941   -0.7524    3.3366 H   0  0  0  0  0  0  0  0  0  0  0  0
   -3.0833   -1.5270    0.0714 H   0  0  0  0  0  0  0  0  0  0  0  0
   -3.4416   -2.1974    1.6678 H   0  0  0  0  0  0  0  0  0  0  0  0
   -1.7616   -2.0776    1.1059 H   0  0  0  0  0  0  0  0  0  0  0  0
  1  2  1  0
  2  3  1  0
  3  4  1  0
  4  5  1  0
  5  6  2  0
  5  7  1  0
  7  8  1  0
  8  9  1  0
  9 10  2  0
  9 11  1  0
  7 12  1  0
  3 13  1  0
 13 14  1  0
 14 15  1  0
 15 16  2  0
 15 17  1  0
 17 18  1  0
 17 19  1  0
  1 20  1  0
  1 21  1  0
  1 22  1  0
  2 23  1  0
  2 24  1  0
  3 25  1  0
  4 26  1  0
  7 27  1  0
  8 28  1  0
  8 29  1  0
 11 30  1  0
 12 31  1  0
 12 32  1  0
 13 33  1  0
 13 34  1  0
 17 35  1  0
 18 36  1  0
 18 37  1  0
 18 38  1  0
 19 39  1  0
 19 40  1  0
 19 41  1  0
M  END
