
     RDKit          3D

 39 39  0  0  0  0  0  0  0  0999 V2000
   -0.6866   -3.5268   -0.0449 C   0  0  0  0  0  0  0  0  0  0  0  0
   -0.2697   -2.1194   -0.4442 C   0  0  0  0  0  0  0  0  0  0  0  0
    0.2734   -1.2861    0.7301 C   0  0  0  0  0  0  0  0  0  0  0  0
    0.7229    0.0189    0.2490 N   0  0  0  0  0  0  0  0  0  0  0  0
    1.9413    0.2158   -0.3630 C   0  0  0  0  0  0  0  0  0  0  0  0
    2.7367   -0.6915   -0.5851 O   0  0  0  0  0  0  0  0  0  0  0  0
    2.1713    1.6787   -0.8035 C   0  0  0  0  0  0  0  0  0  0  0  0
    3.6360    1.9194   -1.1646 C   0  0  0  0  0  0  0  0  0  0  0  0
    4.4854    1.8692    0.0743 C   0  0  0  0  0  0  0  0  0  0  0  0
    4.1027    1.8531    1.2319 O   0  0  0  0  0  0  0  0  0  0  0  0
    5.8024    1.8914   -0.2111 O   0  0  0  0  0  0  0  0  0  0  0  0
    1.3092    1.9528   -1.9798 N   0  0  0  0  0  0  0  0  0  0  0  0
   -0.7304   -1.1181    1.8922 C   0  0  0  0  0  0  0  0  0  0  0  0
   -2.0771   -0.8496    1.4589 O   0  0  0  0  0  0  0  0  0  0  0  0
   -2.3417    0.4142    1.0442 C   0  0  0  0  0  0  0  0  0  0  0  0
   -1.5369    1.3298    0.9557 O   0  0  0  0  0  0  0  0  0  0  0  0
   -3.7713    0.5840    0.7001 C   0  0  0  0  0  0  0  0  0  0  0  0
   -4.4203   -0.2899   -0.3489 C   0  0  0  0  0  0  0  0  0  0  0  0
   -4.1644    1.1583   -0.6413 C   0  0  0  0  0  0  0  0  0  0  0  0
    0.1352   -4.0554    0.4478 H   0  0  0  0  0  0  0  0  0  0  0  0
   -0.9732   -4.0984   -0.9336 H   0  0  0  0  0  0  0  0  0  0  0  0
   -1.5463   -3.5149    0.6313 H   0  0  0  0  0  0  0  0  0  0  0  0
    0.5012   -2.1990   -1.2209 H   0  0  0  0  0  0  0  0  0  0  0  0
   -1.1176   -1.6073   -0.9161 H   0  0  0  0  0  0  0  0  0  0  0  0
    1.1630   -1.7868    1.1333 H   0  0  0  0  0  0  0  0  0  0  0  0
    0.1127    0.8241    0.3992 H   0  0  0  0  0  0  0  0  0  0  0  0
    1.8640    2.3434    0.0140 H   0  0  0  0  0  0  0  0  0  0  0  0
    4.0006    1.1671   -1.8736 H   0  0  0  0  0  0  0  0  0  0  0  0
    3.7622    2.9142   -1.6067 H   0  0  0  0  0  0  0  0  0  0  0  0
    6.2408    1.8749    0.6649 H   0  0  0  0  0  0  0  0  0  0  0  0
    1.5454    1.2806   -2.7123 H   0  0  0  0  0  0  0  0  0  0  0  0
    0.3405    1.7527   -1.7293 H   0  0  0  0  0  0  0  0  0  0  0  0
   -0.7795   -2.0519    2.4626 H   0  0  0  0  0  0  0  0  0  0  0  0
   -0.4050   -0.3413    2.5951 H   0  0  0  0  0  0  0  0  0  0  0  0
   -4.3826    0.8868    1.5445 H   0  0  0  0  0  0  0  0  0  0  0  0
   -5.4432   -0.6060   -0.1796 H   0  0  0  0  0  0  0  0  0  0  0  0
   -3.8103   -1.0270   -0.8589 H   0  0  0  0  0  0  0  0  0  0  0  0
   -3.3763    1.4102   -1.3429 H   0  0  0  0  0  0  0  0  0  0  0  0
   -5.0144    1.8297   -0.6715 H   0  0  0  0  0  0  0  0  0  0  0  0
  1  2  1  0
  2  3  1  0
  3  4  1  0
  4  5  1  0
  5  6  2  0
  5  7  1  0
  7  8  1  0
  8  9  1  0
  9 10  2  0
  9 11  1  0
  7 12  1  0
  3 13  1  0
 13 14  1  0
 14 15  1  0
 15 16  2  0
 15 17  1  0
 17 18  1  0
 18 19  1  0
 19 17  1  0
  1 20  1  0
  1 21  1  0
  1 22  1  0
  2 23  1  0
  2 24  1  0
  3 25  1  0
  4 26  1  0
  7 27  1  0
  8 28  1  0
  8 29  1  0
 11 30  1  0
 12 31  1  0
 12 32  1  0
 13 33  1  0
 13 34  1  0
 17 35  1  0
 18 36  1  0
 18 37  1  0
 19 38  1  0
 19 39  1  0
M  END
