
     RDKit          3D

 42 42  0  0  0  0  0  0  0  0999 V2000
   -0.6529   -1.8891   -2.7537 C   0  0  0  0  0  0  0  0  0  0  0  0
    0.2859   -1.0239   -1.9258 C   0  0  0  0  0  0  0  0  0  0  0  0
    0.5365   -1.5646   -0.5067 C   0  0  0  0  0  0  0  0  0  0  0  0
    1.5096   -0.6959    0.1595 N   0  0  0  0  0  0  0  0  0  0  0  0
    2.2863   -1.1365    1.2054 C   0  0  0  0  0  0  0  0  0  0  0  0
    2.2951   -2.3086    1.5786 O   0  0  0  0  0  0  0  0  0  0  0  0
    3.1479   -0.0411    1.8849 C   0  0  0  0  0  0  0  0  0  0  0  0
    4.2378    0.4660    0.9397 C   0  0  0  0  0  0  0  0  0  0  0  0
    3.6974    1.4901   -0.0179 C   0  0  0  0  0  0  0  0  0  0  0  0
    2.5387    1.8589   -0.1238 O   0  0  0  0  0  0  0  0  0  0  0  0
    4.6561    1.9898   -0.8203 O   0  0  0  0  0  0  0  0  0  0  0  0
    3.7803   -0.6209    3.0973 N   0  0  0  0  0  0  0  0  0  0  0  0
   -0.7470   -1.6936    0.3372 C   0  0  0  0  0  0  0  0  0  0  0  0
   -1.4075   -0.4163    0.3958 O   0  0  0  0  0  0  0  0  0  0  0  0
   -2.6920   -0.4503    0.8601 C   0  0  0  0  0  0  0  0  0  0  0  0
   -3.2538   -1.4868    1.2087 O   0  0  0  0  0  0  0  0  0  0  0  0
   -3.3325    0.9557    0.8832 C   0  0  0  0  0  0  0  0  0  0  0  0
   -4.7334    1.1093    0.2275 C   0  0  0  0  0  0  0  0  0  0  0  0
   -4.3038    2.5216   -0.2077 C   0  0  0  0  0  0  0  0  0  0  0  0
   -2.8493    2.0211   -0.1388 C   0  0  0  0  0  0  0  0  0  0  0  0
   -0.3048   -2.9261   -2.7885 H   0  0  0  0  0  0  0  0  0  0  0  0
   -1.6703   -1.8763   -2.3502 H   0  0  0  0  0  0  0  0  0  0  0  0
   -0.7010   -1.5140   -3.7816 H   0  0  0  0  0  0  0  0  0  0  0  0
   -0.1088   -0.0012   -1.8828 H   0  0  0  0  0  0  0  0  0  0  0  0
    1.2471   -0.9549   -2.4526 H   0  0  0  0  0  0  0  0  0  0  0  0
    0.9898   -2.5614   -0.5831 H   0  0  0  0  0  0  0  0  0  0  0  0
    1.3779    0.3111    0.0599 H   0  0  0  0  0  0  0  0  0  0  0  0
    2.4841    0.7665    2.2122 H   0  0  0  0  0  0  0  0  0  0  0  0
    4.6765   -0.3576    0.3659 H   0  0  0  0  0  0  0  0  0  0  0  0
    5.0318    0.9613    1.5125 H   0  0  0  0  0  0  0  0  0  0  0  0
    4.1979    2.6380   -1.3953 H   0  0  0  0  0  0  0  0  0  0  0  0
    3.0319   -0.9972    3.6847 H   0  0  0  0  0  0  0  0  0  0  0  0
    4.2846   -1.4650    2.8104 H   0  0  0  0  0  0  0  0  0  0  0  0
   -0.5065   -2.0038    1.3596 H   0  0  0  0  0  0  0  0  0  0  0  0
   -1.4085   -2.4437   -0.1105 H   0  0  0  0  0  0  0  0  0  0  0  0
   -3.3306    1.3516    1.9088 H   0  0  0  0  0  0  0  0  0  0  0  0
   -4.9155    0.4246   -0.6095 H   0  0  0  0  0  0  0  0  0  0  0  0
   -5.5852    1.0680    0.9090 H   0  0  0  0  0  0  0  0  0  0  0  0
   -4.6525    2.8426   -1.1924 H   0  0  0  0  0  0  0  0  0  0  0  0
   -4.5358    3.3006    0.5279 H   0  0  0  0  0  0  0  0  0  0  0  0
   -2.4804    1.6103   -1.0868 H   0  0  0  0  0  0  0  0  0  0  0  0
   -2.1211    2.7413    0.2388 H   0  0  0  0  0  0  0  0  0  0  0  0
  1  2  1  0
  2  3  1  0
  3  4  1  0
  4  5  1  0
  5  6  2  0
  5  7  1  0
  7  8  1  0
  8  9  1  0
  9 10  2  0
  9 11  1  0
  7 12  1  0
  3 13  1  0
 13 14  1  0
 14 15  1  0
 15 16  2  0
 15 17  1  0
 17 18  1  0
 18 19  1  0
 19 20  1  0
 20 17  1  0
  1 21  1  0
  1 22  1  0
  1 23  1  0
  2 24  1  0
  2 25  1  0
  3 26  1  0
  4 27  1  0
  7 28  1  0
  8 29  1  0
  8 30  1  0
 11 31  1  0
 12 32  1  0
 12 33  1  0
 13 34  1  0
 13 35  1  0
 17 36  1  0
 18 37  1  0
 18 38  1  0
 19 39  1  0
 19 40  1  0
 20 41  1  0
 20 42  1  0
M  END
