
     RDKit          3D

 36 35  0  0  0  0  0  0  0  0999 V2000
    3.2664    1.4972    2.7257 C   0  0  0  0  0  0  0  0  0  0  0  0
    3.0893    0.4058    1.7157 C   0  0  0  0  0  0  0  0  0  0  0  0
    3.2631   -0.7835    1.9424 O   0  0  0  0  0  0  0  0  0  0  0  0
    2.7113    0.9332    0.5201 O   0  0  0  0  0  0  0  0  0  0  0  0
    2.4680   -0.0309   -0.5258 C   0  0  0  0  0  0  0  0  0  0  0  0
    1.0732   -0.6686   -0.3722 C   0  0  0  0  0  0  0  0  0  0  0  0
    0.8360   -1.8261   -1.3730 C   0  0  0  0  0  0  0  0  0  0  0  0
    1.1014   -1.3791   -2.7078 O   0  0  0  0  0  0  0  0  0  0  0  0
    1.6995   -3.0483   -1.0819 C   0  0  0  0  0  0  0  0  0  0  0  0
    0.0434    0.3666   -0.5370 N   0  0  0  0  0  0  0  0  0  0  0  0
   -1.2452    0.1991   -0.0749 C   0  0  0  0  0  0  0  0  0  0  0  0
   -1.6003   -0.7508    0.6150 O   0  0  0  0  0  0  0  0  0  0  0  0
   -2.1845    1.3473   -0.5116 C   0  0  0  0  0  0  0  0  0  0  0  0
   -3.6425    1.0017   -0.2166 C   0  0  0  0  0  0  0  0  0  0  0  0
   -3.9063    1.0522    1.2629 C   0  0  0  0  0  0  0  0  0  0  0  0
   -3.3201    1.7296    2.0900 O   0  0  0  0  0  0  0  0  0  0  0  0
   -4.9598    0.2913    1.6184 O   0  0  0  0  0  0  0  0  0  0  0  0
   -1.9734    1.5976   -1.9644 N   0  0  0  0  0  0  0  0  0  0  0  0
    2.3219    2.0290    2.8657 H   0  0  0  0  0  0  0  0  0  0  0  0
    4.0502    2.1838    2.3961 H   0  0  0  0  0  0  0  0  0  0  0  0
    3.5652    1.0602    3.6828 H   0  0  0  0  0  0  0  0  0  0  0  0
    2.5402    0.5174   -1.4720 H   0  0  0  0  0  0  0  0  0  0  0  0
    3.2713   -0.7754   -0.5280 H   0  0  0  0  0  0  0  0  0  0  0  0
    0.9512   -1.0578    0.6458 H   0  0  0  0  0  0  0  0  0  0  0  0
   -0.2167   -2.1303   -1.3401 H   0  0  0  0  0  0  0  0  0  0  0  0
    0.8776   -2.1147   -3.3050 H   0  0  0  0  0  0  0  0  0  0  0  0
    2.7603   -2.8476   -1.2606 H   0  0  0  0  0  0  0  0  0  0  0  0
    1.4279   -3.8690   -1.7553 H   0  0  0  0  0  0  0  0  0  0  0  0
    1.5690   -3.3920   -0.0515 H   0  0  0  0  0  0  0  0  0  0  0  0
    0.1082    0.9733   -1.3527 H   0  0  0  0  0  0  0  0  0  0  0  0
   -1.8742    2.2469    0.0329 H   0  0  0  0  0  0  0  0  0  0  0  0
   -3.8846    0.0002   -0.5919 H   0  0  0  0  0  0  0  0  0  0  0  0
   -4.3198    1.7222   -0.6892 H   0  0  0  0  0  0  0  0  0  0  0  0
   -5.0045    0.3870    2.5931 H   0  0  0  0  0  0  0  0  0  0  0  0
   -2.2770    0.7744   -2.4882 H   0  0  0  0  0  0  0  0  0  0  0  0
   -2.5854    2.3581   -2.2611 H   0  0  0  0  0  0  0  0  0  0  0  0
  1  2  1  0
  2  3  2  0
  2  4  1  0
  4  5  1  0
  5  6  1  0
  6  7  1  0
  7  8  1  0
  7  9  1  0
  6 10  1  0
 10 11  1  0
 11 12  2  0
 11 13  1  0
 13 14  1  0
 14 15  1  0
 15 16  2  0
 15 17  1  0
 13 18  1  0
  1 19  1  0
  1 20  1  0
  1 21  1  0
  5 22  1  0
  5 23  1  0
  6 24  1  0
  7 25  1  0
  8 26  1  0
  9 27  1  0
  9 28  1  0
  9 29  1  0
 10 30  1  0
 13 31  1  0
 14 32  1  0
 14 33  1  0
 17 34  1  0
 18 35  1  0
 18 36  1  0
M  END
