
     RDKit          3D

 39 38  0  0  0  0  0  0  0  0999 V2000
    1.3772   -3.1291    1.8075 C   0  0  0  0  0  0  0  0  0  0  0  0
    0.2244   -2.5944    0.9667 C   0  0  0  0  0  0  0  0  0  0  0  0
    0.5518   -1.2525    0.2691 C   0  0  0  0  0  0  0  0  0  0  0  0
   -0.6590   -0.7130   -0.3692 N   0  0  0  0  0  0  0  0  0  0  0  0
   -1.6308   -0.0503    0.3494 C   0  0  0  0  0  0  0  0  0  0  0  0
   -1.5335    0.1920    1.5485 O   0  0  0  0  0  0  0  0  0  0  0  0
   -2.8869    0.2790   -0.4854 C   0  0  0  0  0  0  0  0  0  0  0  0
   -3.7120    1.3793    0.1787 C   0  0  0  0  0  0  0  0  0  0  0  0
   -2.9588    2.6795    0.1515 C   0  0  0  0  0  0  0  0  0  0  0  0
   -1.9746    2.9480   -0.5170 O   0  0  0  0  0  0  0  0  0  0  0  0
   -3.5204    3.6085    0.9500 O   0  0  0  0  0  0  0  0  0  0  0  0
   -3.6982   -0.9580   -0.6098 N   0  0  0  0  0  0  0  0  0  0  0  0
    1.6700   -1.3862   -0.7838 C   0  0  0  0  0  0  0  0  0  0  0  0
    1.9780   -0.1030   -1.3675 O   0  0  0  0  0  0  0  0  0  0  0  0
    2.7742    0.7034   -0.6096 C   0  0  0  0  0  0  0  0  0  0  0  0
    3.2637    0.3899    0.4662 O   0  0  0  0  0  0  0  0  0  0  0  0
    2.9544    2.0297   -1.3069 C   0  0  0  0  0  0  0  0  0  0  0  0
    3.7990    2.9920   -0.4906 C   0  0  0  0  0  0  0  0  0  0  0  0
   -0.1298   -3.5750   -0.0175 O   0  0  0  0  0  0  0  0  0  0  0  0
    1.7229   -2.3839    2.5299 H   0  0  0  0  0  0  0  0  0  0  0  0
    2.2206   -3.4440    1.1850 H   0  0  0  0  0  0  0  0  0  0  0  0
    1.0578   -4.0205    2.3589 H   0  0  0  0  0  0  0  0  0  0  0  0
   -0.6496   -2.4635    1.6158 H   0  0  0  0  0  0  0  0  0  0  0  0
    0.8498   -0.5253    1.0336 H   0  0  0  0  0  0  0  0  0  0  0  0
   -0.8961   -1.0703   -1.2864 H   0  0  0  0  0  0  0  0  0  0  0  0
   -2.5727    0.5896   -1.4890 H   0  0  0  0  0  0  0  0  0  0  0  0
   -3.9409    1.1260    1.2206 H   0  0  0  0  0  0  0  0  0  0  0  0
   -4.6536    1.5312   -0.3616 H   0  0  0  0  0  0  0  0  0  0  0  0
   -2.9387    4.3916    0.8577 H   0  0  0  0  0  0  0  0  0  0  0  0
   -3.9937   -1.2450    0.3261 H   0  0  0  0  0  0  0  0  0  0  0  0
   -3.1053   -1.7169   -0.9471 H   0  0  0  0  0  0  0  0  0  0  0  0
    1.3472   -2.0287   -1.6108 H   0  0  0  0  0  0  0  0  0  0  0  0
    2.5824   -1.8304   -0.3717 H   0  0  0  0  0  0  0  0  0  0  0  0
    3.4370    1.8506   -2.2733 H   0  0  0  0  0  0  0  0  0  0  0  0
    1.9657    2.4698   -1.4751 H   0  0  0  0  0  0  0  0  0  0  0  0
    3.9092    3.9444   -1.0181 H   0  0  0  0  0  0  0  0  0  0  0  0
    3.3384    3.1907    0.4829 H   0  0  0  0  0  0  0  0  0  0  0  0
    4.7985    2.5826   -0.3105 H   0  0  0  0  0  0  0  0  0  0  0  0
   -0.3678   -4.3879    0.4637 H   0  0  0  0  0  0  0  0  0  0  0  0
  1  2  1  0
  2  3  1  0
  3  4  1  0
  4  5  1  0
  5  6  2  0
  5  7  1  0
  7  8  1  0
  8  9  1  0
  9 10  2  0
  9 11  1  0
  7 12  1  0
  3 13  1  0
 13 14  1  0
 14 15  1  0
 15 16  2  0
 15 17  1  0
 17 18  1  0
  2 19  1  0
  1 20  1  0
  1 21  1  0
  1 22  1  0
  2 23  1  0
  3 24  1  0
  4 25  1  0
  7 26  1  0
  8 27  1  0
  8 28  1  0
 11 29  1  0
 12 30  1  0
 12 31  1  0
 13 32  1  0
 13 33  1  0
 17 34  1  0
 17 35  1  0
 18 36  1  0
 18 37  1  0
 18 38  1  0
 19 39  1  0
M  END
