
     RDKit          3D

 26 26  0  0  0  0  0  0  0  0999 V2000
   -4.3214    0.5105    0.8471 C   0  0  0  0  0  0  0  0  0  0  0  0
   -3.1785   -0.4326    0.5169 C   0  0  0  0  0  0  0  0  0  0  0  0
   -1.8711    0.3185    0.2831 C   0  0  0  0  0  0  0  0  0  0  0  0
   -0.8636   -0.6459   -0.0214 O   0  0  0  0  0  0  0  0  0  0  0  0
    0.4265   -0.1895   -0.1489 C   0  0  0  0  0  0  0  0  0  0  0  0
    0.7975    1.1575   -0.2096 C   0  0  0  0  0  0  0  0  0  0  0  0
    2.1440    1.5098   -0.3395 C   0  0  0  0  0  0  0  0  0  0  0  0
    3.1194    0.5071   -0.3991 C   0  0  0  0  0  0  0  0  0  0  0  0
    2.7590   -0.8441   -0.3444 C   0  0  0  0  0  0  0  0  0  0  0  0
    1.4095   -1.1985   -0.2605 C   0  0  0  0  0  0  0  0  0  0  0  0
    1.0622   -2.5508   -0.0761 N   0  0  0  0  0  0  0  0  0  0  0  0
    4.5350    0.8763   -0.5113 N   0  0  0  0  0  4  0  0  0  0  0  0
    4.8204    2.0818   -0.4693 O   0  0  0  0  0  1  0  0  0  0  0  0
    5.3620   -0.0366   -0.6469 O   0  0  0  0  0  0  0  0  0  0  0  0
   -5.2446   -0.0543    1.0095 H   0  0  0  0  0  0  0  0  0  0  0  0
   -4.1083    1.0818    1.7563 H   0  0  0  0  0  0  0  0  0  0  0  0
   -4.4950    1.2176    0.0296 H   0  0  0  0  0  0  0  0  0  0  0  0
   -3.0460   -1.1561    1.3303 H   0  0  0  0  0  0  0  0  0  0  0  0
   -3.4279   -1.0224   -0.3734 H   0  0  0  0  0  0  0  0  0  0  0  0
   -1.9932    1.0085   -0.5601 H   0  0  0  0  0  0  0  0  0  0  0  0
   -1.6031    0.8755    1.1891 H   0  0  0  0  0  0  0  0  0  0  0  0
    0.0643    1.9560   -0.1577 H   0  0  0  0  0  0  0  0  0  0  0  0
    2.4135    2.5634   -0.3823 H   0  0  0  0  0  0  0  0  0  0  0  0
    3.5163   -1.6243   -0.3578 H   0  0  0  0  0  0  0  0  0  0  0  0
    0.0682   -2.6988   -0.2493 H   0  0  0  0  0  0  0  0  0  0  0  0
    1.6551   -3.2102   -0.5680 H   0  0  0  0  0  0  0  0  0  0  0  0
  1  2  1  0
  2  3  1  0
  3  4  1  0
  4  5  1  0
  5  6  2  0
  6  7  1  0
  7  8  2  0
  8  9  1  0
  9 10  2  0
 10 11  1  0
  8 12  1  0
 12 13  1  0
 12 14  2  0
 10  5  1  0
  1 15  1  0
  1 16  1  0
  1 17  1  0
  2 18  1  0
  2 19  1  0
  3 20  1  0
  3 21  1  0
  6 22  1  0
  7 23  1  0
  9 24  1  0
 11 25  1  0
 11 26  1  0
M  CHG  2  12   1  13  -1
M  END
