
     RDKit          3D

 38 37  0  0  0  0  0  0  0  0999 V2000
   -1.0506    2.8973    2.3585 C   0  0  0  0  0  0  0  0  0  0  0  0
   -1.3358    1.5226    1.8392 C   0  0  0  0  0  0  0  0  0  0  0  0
   -1.0008    0.4838    2.3956 O   0  0  0  0  0  0  0  0  0  0  0  0
   -2.0166    1.5943    0.6624 O   0  0  0  0  0  0  0  0  0  0  0  0
   -2.3418    0.3330    0.0367 C   0  0  0  0  0  0  0  0  0  0  0  0
   -1.1611   -0.1779   -0.8202 C   0  0  0  0  0  0  0  0  0  0  0  0
   -1.5152   -1.3778   -1.7358 C   0  0  0  0  0  0  0  0  0  0  0  0
   -2.0832   -2.5747   -0.9674 C   0  0  0  0  0  0  0  0  0  0  0  0
   -2.4758   -0.9741   -2.8577 C   0  0  0  0  0  0  0  0  0  0  0  0
   -0.0181   -0.5226    0.0300 N   0  0  0  0  0  0  0  0  0  0  0  0
    1.2836   -0.3120   -0.3716 C   0  0  0  0  0  0  0  0  0  0  0  0
    1.5964    0.0012   -1.5168 O   0  0  0  0  0  0  0  0  0  0  0  0
    2.3203   -0.5922    0.7382 C   0  0  0  0  0  0  0  0  0  0  0  0
    3.5812    0.2398    0.5173 C   0  0  0  0  0  0  0  0  0  0  0  0
    3.2712    1.7005    0.6967 C   0  0  0  0  0  0  0  0  0  0  0  0
    2.2393    2.1921    1.1242 O   0  0  0  0  0  0  0  0  0  0  0  0
    4.3113    2.4842    0.3497 O   0  0  0  0  0  0  0  0  0  0  0  0
    2.6459   -2.0385    0.7126 N   0  0  0  0  0  0  0  0  0  0  0  0
   -0.4394    2.8231    3.2628 H   0  0  0  0  0  0  0  0  0  0  0  0
   -0.4931    3.4684    1.6115 H   0  0  0  0  0  0  0  0  0  0  0  0
   -1.9880    3.4009    2.6072 H   0  0  0  0  0  0  0  0  0  0  0  0
   -3.2146    0.5315   -0.5919 H   0  0  0  0  0  0  0  0  0  0  0  0
   -2.6500   -0.3948    0.7966 H   0  0  0  0  0  0  0  0  0  0  0  0
   -0.8314    0.6558   -1.4546 H   0  0  0  0  0  0  0  0  0  0  0  0
   -0.5888   -1.7167   -2.2194 H   0  0  0  0  0  0  0  0  0  0  0  0
   -2.2198   -3.4296   -1.6388 H   0  0  0  0  0  0  0  0  0  0  0  0
   -1.4066   -2.8901   -0.1668 H   0  0  0  0  0  0  0  0  0  0  0  0
   -3.0574   -2.3465   -0.5233 H   0  0  0  0  0  0  0  0  0  0  0  0
   -3.4671   -0.7136   -2.4742 H   0  0  0  0  0  0  0  0  0  0  0  0
   -2.6039   -1.7993   -3.5669 H   0  0  0  0  0  0  0  0  0  0  0  0
   -2.0865   -0.1156   -3.4149 H   0  0  0  0  0  0  0  0  0  0  0  0
   -0.1920   -0.6199    1.0313 H   0  0  0  0  0  0  0  0  0  0  0  0
    1.8812   -0.3551    1.7145 H   0  0  0  0  0  0  0  0  0  0  0  0
    4.3484   -0.0304    1.2519 H   0  0  0  0  0  0  0  0  0  0  0  0
    3.9861    0.0881   -0.4899 H   0  0  0  0  0  0  0  0  0  0  0  0
    3.9899    3.3983    0.4933 H   0  0  0  0  0  0  0  0  0  0  0  0
    1.7753   -2.5657    0.7964 H   0  0  0  0  0  0  0  0  0  0  0  0
    3.0073   -2.2678   -0.2164 H   0  0  0  0  0  0  0  0  0  0  0  0
  1  2  1  0
  2  3  2  0
  2  4  1  0
  4  5  1  0
  5  6  1  0
  6  7  1  0
  7  8  1  0
  7  9  1  0
  6 10  1  0
 10 11  1  0
 11 12  2  0
 11 13  1  0
 13 14  1  0
 14 15  1  0
 15 16  2  0
 15 17  1  0
 13 18  1  0
  1 19  1  0
  1 20  1  0
  1 21  1  0
  5 22  1  0
  5 23  1  0
  6 24  1  0
  7 25  1  0
  8 26  1  0
  8 27  1  0
  8 28  1  0
  9 29  1  0
  9 30  1  0
  9 31  1  0
 10 32  1  0
 13 33  1  0
 14 34  1  0
 14 35  1  0
 17 36  1  0
 18 37  1  0
 18 38  1  0
M  END
