
     RDKit          3D

 41 40  0  0  0  0  0  0  0  0999 V2000
   -2.3221    3.6577    0.1095 C   0  0  0  0  0  0  0  0  0  0  0  0
   -2.7080    2.1907    0.1795 C   0  0  0  0  0  0  0  0  0  0  0  0
   -1.6257    1.3469    0.8094 C   0  0  0  0  0  0  0  0  0  0  0  0
   -0.5524    1.7632    1.2233 O   0  0  0  0  0  0  0  0  0  0  0  0
   -2.0331    0.0498    0.8452 O   0  0  0  0  0  0  0  0  0  0  0  0
   -1.1047   -0.9099    1.3838 C   0  0  0  0  0  0  0  0  0  0  0  0
   -0.3624   -1.6600    0.2525 C   0  0  0  0  0  0  0  0  0  0  0  0
    0.3643   -2.9392    0.7560 C   0  0  0  0  0  0  0  0  0  0  0  0
    1.0705   -3.6640   -0.4009 C   0  0  0  0  0  0  0  0  0  0  0  0
   -0.5811   -3.9311    1.4427 C   0  0  0  0  0  0  0  0  0  0  0  0
    0.6197   -0.7803   -0.3937 N   0  0  0  0  0  0  0  0  0  0  0  0
    0.3341    0.0147   -1.4786 C   0  0  0  0  0  0  0  0  0  0  0  0
   -0.7691    0.0478   -2.0220 O   0  0  0  0  0  0  0  0  0  0  0  0
    1.5331    0.8518   -1.9967 C   0  0  0  0  0  0  0  0  0  0  0  0
    1.7073    2.1359   -1.1886 C   0  0  0  0  0  0  0  0  0  0  0  0
    2.3571    1.8655    0.1393 C   0  0  0  0  0  0  0  0  0  0  0  0
    2.6389    0.7734    0.6097 O   0  0  0  0  0  0  0  0  0  0  0  0
    2.6203    2.9998    0.8159 O   0  0  0  0  0  0  0  0  0  0  0  0
    1.2850    1.1933   -3.4222 N   0  0  0  0  0  0  0  0  0  0  0  0
   -3.1283    4.2427   -0.3436 H   0  0  0  0  0  0  0  0  0  0  0  0
   -1.4183    3.7986   -0.4920 H   0  0  0  0  0  0  0  0  0  0  0  0
   -2.1252    4.0612    1.1083 H   0  0  0  0  0  0  0  0  0  0  0  0
   -2.8955    1.8167   -0.8325 H   0  0  0  0  0  0  0  0  0  0  0  0
   -3.6203    2.0846    0.7759 H   0  0  0  0  0  0  0  0  0  0  0  0
   -1.7263   -1.5962    1.9635 H   0  0  0  0  0  0  0  0  0  0  0  0
   -0.4006   -0.4481    2.0865 H   0  0  0  0  0  0  0  0  0  0  0  0
   -1.0990   -1.9418   -0.5112 H   0  0  0  0  0  0  0  0  0  0  0  0
    1.1350   -2.6475    1.4820 H   0  0  0  0  0  0  0  0  0  0  0  0
    0.3567   -3.9520   -1.1803 H   0  0  0  0  0  0  0  0  0  0  0  0
    1.8409   -3.0358   -0.8592 H   0  0  0  0  0  0  0  0  0  0  0  0
    1.5677   -4.5730   -0.0451 H   0  0  0  0  0  0  0  0  0  0  0  0
   -0.9461   -3.5435    2.3980 H   0  0  0  0  0  0  0  0  0  0  0  0
   -1.4442   -4.1596    0.8087 H   0  0  0  0  0  0  0  0  0  0  0  0
   -0.0664   -4.8727    1.6641 H   0  0  0  0  0  0  0  0  0  0  0  0
    1.4661   -0.5577    0.1334 H   0  0  0  0  0  0  0  0  0  0  0  0
    2.4363    0.2315   -1.9595 H   0  0  0  0  0  0  0  0  0  0  0  0
    0.7444    2.6276   -1.0171 H   0  0  0  0  0  0  0  0  0  0  0  0
    2.3652    2.8276   -1.7292 H   0  0  0  0  0  0  0  0  0  0  0  0
    2.9640    2.7026    1.6833 H   0  0  0  0  0  0  0  0  0  0  0  0
    1.1715    0.3156   -3.9350 H   0  0  0  0  0  0  0  0  0  0  0  0
    0.3507    1.6130   -3.4734 H   0  0  0  0  0  0  0  0  0  0  0  0
  1  2  1  0
  2  3  1  0
  3  4  2  0
  3  5  1  0
  5  6  1  0
  6  7  1  0
  7  8  1  0
  8  9  1  0
  8 10  1  0
  7 11  1  0
 11 12  1  0
 12 13  2  0
 12 14  1  0
 14 15  1  0
 15 16  1  0
 16 17  2  0
 16 18  1  0
 14 19  1  0
  1 20  1  0
  1 21  1  0
  1 22  1  0
  2 23  1  0
  2 24  1  0
  6 25  1  0
  6 26  1  0
  7 27  1  0
  8 28  1  0
  9 29  1  0
  9 30  1  0
  9 31  1  0
 10 32  1  0
 10 33  1  0
 10 34  1  0
 11 35  1  0
 14 36  1  0
 15 37  1  0
 15 38  1  0
 18 39  1  0
 19 40  1  0
 19 41  1  0
M  END
