
     RDKit          3D

 44 43  0  0  0  0  0  0  0  0999 V2000
   -0.3239   -2.5389   -2.2231 C   0  0  0  0  0  0  0  0  0  0  0  0
    0.6766   -1.8824   -1.2605 C   0  0  0  0  0  0  0  0  0  0  0  0
    0.0340   -1.6248    0.1306 C   0  0  0  0  0  0  0  0  0  0  0  0
   -1.1968   -0.8416   -0.0059 N   0  0  0  0  0  0  0  0  0  0  0  0
   -2.3074   -1.1037    0.7719 C   0  0  0  0  0  0  0  0  0  0  0  0
   -2.3493   -2.0185    1.5919 O   0  0  0  0  0  0  0  0  0  0  0  0
   -3.5157   -0.1582    0.5426 C   0  0  0  0  0  0  0  0  0  0  0  0
   -3.3993    1.0514    1.4675 C   0  0  0  0  0  0  0  0  0  0  0  0
   -2.1934    1.8522    1.0647 C   0  0  0  0  0  0  0  0  0  0  0  0
   -1.7660    1.9734   -0.0742 O   0  0  0  0  0  0  0  0  0  0  0  0
   -1.5348    2.3379    2.1321 O   0  0  0  0  0  0  0  0  0  0  0  0
   -4.7677   -0.9013    0.8271 N   0  0  0  0  0  0  0  0  0  0  0  0
    0.9831   -0.9771    1.1724 C   0  0  0  0  0  0  0  0  0  0  0  0
    1.9332   -0.0795    0.5613 O   0  0  0  0  0  0  0  0  0  0  0  0
    1.7593    1.2600    0.7167 C   0  0  0  0  0  0  0  0  0  0  0  0
    0.8266    1.7931    1.3081 O   0  0  0  0  0  0  0  0  0  0  0  0
    2.9173    2.0115    0.0751 C   0  0  0  0  0  0  0  0  0  0  0  0
    3.0003    1.7134   -1.4210 C   0  0  0  0  0  0  0  0  0  0  0  0
    2.7789    3.5150    0.3040 C   0  0  0  0  0  0  0  0  0  0  0  0
    1.9157   -2.7796   -1.1541 C   0  0  0  0  0  0  0  0  0  0  0  0
    0.1423   -2.7306   -3.1962 H   0  0  0  0  0  0  0  0  0  0  0  0
   -1.1852   -1.8910   -2.4084 H   0  0  0  0  0  0  0  0  0  0  0  0
   -0.6906   -3.4937   -1.8268 H   0  0  0  0  0  0  0  0  0  0  0  0
    0.9743   -0.9249   -1.7082 H   0  0  0  0  0  0  0  0  0  0  0  0
   -0.2637   -2.5961    0.5493 H   0  0  0  0  0  0  0  0  0  0  0  0
   -1.1549    0.0499   -0.5013 H   0  0  0  0  0  0  0  0  0  0  0  0
   -3.5398    0.1482   -0.5079 H   0  0  0  0  0  0  0  0  0  0  0  0
   -3.2603    0.7163    2.5078 H   0  0  0  0  0  0  0  0  0  0  0  0
   -4.2812    1.6998    1.4115 H   0  0  0  0  0  0  0  0  0  0  0  0
   -0.6047    2.4825    1.8203 H   0  0  0  0  0  0  0  0  0  0  0  0
   -4.6596   -1.3281    1.7538 H   0  0  0  0  0  0  0  0  0  0  0  0
   -4.7953   -1.7147    0.2030 H   0  0  0  0  0  0  0  0  0  0  0  0
    1.5851   -1.7660    1.6422 H   0  0  0  0  0  0  0  0  0  0  0  0
    0.4244   -0.4905    1.9833 H   0  0  0  0  0  0  0  0  0  0  0  0
    3.8378    1.6741    0.5710 H   0  0  0  0  0  0  0  0  0  0  0  0
    3.8325    2.2567   -1.8857 H   0  0  0  0  0  0  0  0  0  0  0  0
    3.1633    0.6467   -1.6006 H   0  0  0  0  0  0  0  0  0  0  0  0
    2.0729    2.0004   -1.9371 H   0  0  0  0  0  0  0  0  0  0  0  0
    1.8695    3.9072   -0.1646 H   0  0  0  0  0  0  0  0  0  0  0  0
    3.6351    4.0524   -0.1163 H   0  0  0  0  0  0  0  0  0  0  0  0
    2.7278    3.7421    1.3737 H   0  0  0  0  0  0  0  0  0  0  0  0
    2.7045   -2.3163   -0.5560 H   0  0  0  0  0  0  0  0  0  0  0  0
    2.3337   -2.9845   -2.1448 H   0  0  0  0  0  0  0  0  0  0  0  0
    1.6613   -3.7424   -0.6901 H   0  0  0  0  0  0  0  0  0  0  0  0
  1  2  1  0
  2  3  1  0
  3  4  1  0
  4  5  1  0
  5  6  2  0
  5  7  1  0
  7  8  1  0
  8  9  1  0
  9 10  2  0
  9 11  1  0
  7 12  1  0
  3 13  1  0
 13 14  1  0
 14 15  1  0
 15 16  2  0
 15 17  1  0
 17 18  1  0
 17 19  1  0
  2 20  1  0
  1 21  1  0
  1 22  1  0
  1 23  1  0
  2 24  1  0
  3 25  1  0
  4 26  1  0
  7 27  1  0
  8 28  1  0
  8 29  1  0
 11 30  1  0
 12 31  1  0
 12 32  1  0
 13 33  1  0
 13 34  1  0
 17 35  1  0
 18 36  1  0
 18 37  1  0
 18 38  1  0
 19 39  1  0
 19 40  1  0
 19 41  1  0
 20 42  1  0
 20 43  1  0
 20 44  1  0
M  END
