
     RDKit          3D

 42 42  0  0  0  0  0  0  0  0999 V2000
   -1.0023    3.9058   -0.1153 C   0  0  0  0  0  0  0  0  0  0  0  0
    0.1452    2.8899   -0.0920 C   0  0  0  0  0  0  0  0  0  0  0  0
   -0.3822    1.4301   -0.1269 C   0  0  0  0  0  0  0  0  0  0  0  0
    0.6927    0.5139    0.2734 N   0  0  0  0  0  0  0  0  0  0  0  0
    0.9734    0.2260    1.5920 C   0  0  0  0  0  0  0  0  0  0  0  0
    0.2571    0.5944    2.5231 O   0  0  0  0  0  0  0  0  0  0  0  0
    2.2793   -0.5854    1.8255 C   0  0  0  0  0  0  0  0  0  0  0  0
    2.1495   -2.0271    1.3366 C   0  0  0  0  0  0  0  0  0  0  0  0
    2.0381   -2.0512   -0.1585 C   0  0  0  0  0  0  0  0  0  0  0  0
    2.5088   -1.2199   -0.9203 O   0  0  0  0  0  0  0  0  0  0  0  0
    1.2734   -3.0627   -0.6046 O   0  0  0  0  0  0  0  0  0  0  0  0
    2.5928   -0.5841    3.2775 N   0  0  0  0  0  0  0  0  0  0  0  0
   -0.9706    1.0052   -1.4892 C   0  0  0  0  0  0  0  0  0  0  0  0
   -1.8540   -0.1184   -1.3025 O   0  0  0  0  0  0  0  0  0  0  0  0
   -1.3945   -1.3444   -1.6507 C   0  0  0  0  0  0  0  0  0  0  0  0
   -0.3145   -1.6101   -2.1581 O   0  0  0  0  0  0  0  0  0  0  0  0
   -2.3856   -2.4092   -1.3631 C   0  0  0  0  0  0  0  0  0  0  0  0
   -2.2376   -3.2438   -0.1084 C   0  0  0  0  0  0  0  0  0  0  0  0
   -3.3957   -2.2961   -0.2438 C   0  0  0  0  0  0  0  0  0  0  0  0
    1.1377    3.2004   -1.2147 C   0  0  0  0  0  0  0  0  0  0  0  0
   -1.7168    3.7044    0.6893 H   0  0  0  0  0  0  0  0  0  0  0  0
   -1.5468    3.8892   -1.0632 H   0  0  0  0  0  0  0  0  0  0  0  0
   -0.6187    4.9229    0.0293 H   0  0  0  0  0  0  0  0  0  0  0  0
    0.6729    3.0370    0.8612 H   0  0  0  0  0  0  0  0  0  0  0  0
   -1.1693    1.3324    0.6324 H   0  0  0  0  0  0  0  0  0  0  0  0
    1.4083    0.3013   -0.4237 H   0  0  0  0  0  0  0  0  0  0  0  0
    3.0961   -0.0636    1.3122 H   0  0  0  0  0  0  0  0  0  0  0  0
    3.0266   -2.6201    1.6108 H   0  0  0  0  0  0  0  0  0  0  0  0
    1.2482   -2.4848    1.7640 H   0  0  0  0  0  0  0  0  0  0  0  0
    1.0354   -2.7968   -1.5278 H   0  0  0  0  0  0  0  0  0  0  0  0
    2.6544    0.3925    3.5772 H   0  0  0  0  0  0  0  0  0  0  0  0
    1.7606   -0.9188    3.7715 H   0  0  0  0  0  0  0  0  0  0  0  0
   -0.1852    0.7851   -2.2220 H   0  0  0  0  0  0  0  0  0  0  0  0
   -1.5949    1.7985   -1.9095 H   0  0  0  0  0  0  0  0  0  0  0  0
   -2.7076   -2.9379   -2.2558 H   0  0  0  0  0  0  0  0  0  0  0  0
   -2.4322   -4.3078   -0.1847 H   0  0  0  0  0  0  0  0  0  0  0  0
   -1.4497   -2.9890    0.5928 H   0  0  0  0  0  0  0  0  0  0  0  0
   -4.3821   -2.7132   -0.4072 H   0  0  0  0  0  0  0  0  0  0  0  0
   -3.3966   -1.4072    0.3780 H   0  0  0  0  0  0  0  0  0  0  0  0
    0.6512    3.1950   -2.1956 H   0  0  0  0  0  0  0  0  0  0  0  0
    1.9575    2.4740   -1.2394 H   0  0  0  0  0  0  0  0  0  0  0  0
    1.5778    4.1935   -1.0700 H   0  0  0  0  0  0  0  0  0  0  0  0
  1  2  1  0
  2  3  1  0
  3  4  1  0
  4  5  1  0
  5  6  2  0
  5  7  1  0
  7  8  1  0
  8  9  1  0
  9 10  2  0
  9 11  1  0
  7 12  1  0
  3 13  1  0
 13 14  1  0
 14 15  1  0
 15 16  2  0
 15 17  1  0
 17 18  1  0
 18 19  1  0
  2 20  1  0
 19 17  1  0
  1 21  1  0
  1 22  1  0
  1 23  1  0
  2 24  1  0
  3 25  1  0
  4 26  1  0
  7 27  1  0
  8 28  1  0
  8 29  1  0
 11 30  1  0
 12 31  1  0
 12 32  1  0
 13 33  1  0
 13 34  1  0
 17 35  1  0
 18 36  1  0
 18 37  1  0
 19 38  1  0
 19 39  1  0
 20 40  1  0
 20 41  1  0
 20 42  1  0
M  END
