
     RDKit          3D

 45 45  0  0  0  0  0  0  0  0999 V2000
   -0.0403   -1.7665    3.2502 C   0  0  0  0  0  0  0  0  0  0  0  0
   -0.2299   -2.1923    1.7917 C   0  0  0  0  0  0  0  0  0  0  0  0
    0.0706   -1.0743    0.7603 C   0  0  0  0  0  0  0  0  0  0  0  0
   -0.8782    0.0375    0.8756 N   0  0  0  0  0  0  0  0  0  0  0  0
   -1.2560    0.8046   -0.2042 C   0  0  0  0  0  0  0  0  0  0  0  0
   -0.9284    0.5514   -1.3628 O   0  0  0  0  0  0  0  0  0  0  0  0
   -2.1413    2.0270    0.1508 C   0  0  0  0  0  0  0  0  0  0  0  0
   -3.5410    1.5805    0.5759 C   0  0  0  0  0  0  0  0  0  0  0  0
   -3.5637    1.1673    2.0208 C   0  0  0  0  0  0  0  0  0  0  0  0
   -2.6059    1.0638    2.7711 O   0  0  0  0  0  0  0  0  0  0  0  0
   -4.8076    0.8775    2.4471 O   0  0  0  0  0  0  0  0  0  0  0  0
   -2.2414    2.9025   -1.0443 N   0  0  0  0  0  0  0  0  0  0  0  0
    1.5253   -0.5604    0.8726 C   0  0  0  0  0  0  0  0  0  0  0  0
    1.8741    0.2811   -0.2413 O   0  0  0  0  0  0  0  0  0  0  0  0
    2.1915   -0.3779   -1.3985 C   0  0  0  0  0  0  0  0  0  0  0  0
    2.2761   -1.6029   -1.4664 O   0  0  0  0  0  0  0  0  0  0  0  0
    2.4293    0.6238   -2.5624 C   0  0  0  0  0  0  0  0  0  0  0  0
    3.8502    1.2361   -2.6805 C   0  0  0  0  0  0  0  0  0  0  0  0
    4.1682    0.1586   -3.7327 C   0  0  0  0  0  0  0  0  0  0  0  0
    2.6533    0.0452   -3.9850 C   0  0  0  0  0  0  0  0  0  0  0  0
   -1.6379   -2.7647    1.5959 C   0  0  0  0  0  0  0  0  0  0  0  0
    0.9860   -1.4405    3.4405 H   0  0  0  0  0  0  0  0  0  0  0  0
   -0.2403   -2.6077    3.9223 H   0  0  0  0  0  0  0  0  0  0  0  0
   -0.7162   -0.9531    3.5304 H   0  0  0  0  0  0  0  0  0  0  0  0
    0.4782   -3.0105    1.6002 H   0  0  0  0  0  0  0  0  0  0  0  0
   -0.0685   -1.4993   -0.2416 H   0  0  0  0  0  0  0  0  0  0  0  0
   -1.0874    0.3967    1.8067 H   0  0  0  0  0  0  0  0  0  0  0  0
   -1.6395    2.6000    0.9386 H   0  0  0  0  0  0  0  0  0  0  0  0
   -4.2464    2.4148    0.4755 H   0  0  0  0  0  0  0  0  0  0  0  0
   -3.8925    0.7409   -0.0343 H   0  0  0  0  0  0  0  0  0  0  0  0
   -4.7070    0.6184    3.3866 H   0  0  0  0  0  0  0  0  0  0  0  0
   -1.2886    3.1514   -1.3222 H   0  0  0  0  0  0  0  0  0  0  0  0
   -2.5612    2.3200   -1.8248 H   0  0  0  0  0  0  0  0  0  0  0  0
    2.2417   -1.3860    0.9584 H   0  0  0  0  0  0  0  0  0  0  0  0
    1.6427    0.0594    1.7683 H   0  0  0  0  0  0  0  0  0  0  0  0
    1.6463    1.3949   -2.5585 H   0  0  0  0  0  0  0  0  0  0  0  0
    4.4676    1.2054   -1.7784 H   0  0  0  0  0  0  0  0  0  0  0  0
    3.8542    2.2587   -3.0758 H   0  0  0  0  0  0  0  0  0  0  0  0
    4.6145   -0.7493   -3.3119 H   0  0  0  0  0  0  0  0  0  0  0  0
    4.7699    0.4893   -4.5831 H   0  0  0  0  0  0  0  0  0  0  0  0
    2.2818   -0.9672   -4.1633 H   0  0  0  0  0  0  0  0  0  0  0  0
    2.2881    0.6993   -4.7854 H   0  0  0  0  0  0  0  0  0  0  0  0
   -1.7853   -3.0931    0.5619 H   0  0  0  0  0  0  0  0  0  0  0  0
   -1.7941   -3.6331    2.2449 H   0  0  0  0  0  0  0  0  0  0  0  0
   -2.4114   -2.0274    1.8339 H   0  0  0  0  0  0  0  0  0  0  0  0
  1  2  1  0
  2  3  1  0
  3  4  1  0
  4  5  1  0
  5  6  2  0
  5  7  1  0
  7  8  1  0
  8  9  1  0
  9 10  2  0
  9 11  1  0
  7 12  1  0
  3 13  1  0
 13 14  1  0
 14 15  1  0
 15 16  2  0
 15 17  1  0
 17 18  1  0
 18 19  1  0
 19 20  1  0
  2 21  1  0
 20 17  1  0
  1 22  1  0
  1 23  1  0
  1 24  1  0
  2 25  1  0
  3 26  1  0
  4 27  1  0
  7 28  1  0
  8 29  1  0
  8 30  1  0
 11 31  1  0
 12 32  1  0
 12 33  1  0
 13 34  1  0
 13 35  1  0
 17 36  1  0
 18 37  1  0
 18 38  1  0
 19 39  1  0
 19 40  1  0
 20 41  1  0
 20 42  1  0
 21 43  1  0
 21 44  1  0
 21 45  1  0
M  END
