
     RDKit          3D

 38 37  0  0  0  0  0  0  0  0999 V2000
    1.9729    3.4189   -2.8140 C   0  0  0  0  0  0  0  0  0  0  0  0
    1.9186    2.5524   -1.5647 C   0  0  0  0  0  0  0  0  0  0  0  0
    0.7043    1.6217   -1.5849 C   0  0  0  0  0  0  0  0  0  0  0  0
    0.6686    0.6385   -0.4032 C   0  0  0  0  0  0  0  0  0  0  0  0
   -0.3855   -0.3530   -0.6487 N   0  0  0  0  0  0  0  0  0  0  0  0
   -0.3112   -1.6391   -0.1600 C   0  0  0  0  0  0  0  0  0  0  0  0
    0.6926   -2.1107    0.3718 O   0  0  0  0  0  0  0  0  0  0  0  0
   -1.6105   -2.4629   -0.3276 C   0  0  0  0  0  0  0  0  0  0  0  0
   -2.5497   -2.1996    0.8498 C   0  0  0  0  0  0  0  0  0  0  0  0
   -3.2553   -0.8810    0.7025 C   0  0  0  0  0  0  0  0  0  0  0  0
   -3.0620   -0.0343   -0.1559 O   0  0  0  0  0  0  0  0  0  0  0  0
   -4.1707   -0.6848    1.6701 O   0  0  0  0  0  0  0  0  0  0  0  0
   -1.2547   -3.9032   -0.3695 N   0  0  0  0  0  0  0  0  0  0  0  0
    0.4206    1.3552    0.9442 C   0  0  0  0  0  0  0  0  0  0  0  0
    0.4592    0.4320    2.0477 O   0  0  0  0  0  0  0  0  0  0  0  0
    1.7117    0.0888    2.4609 C   0  0  0  0  0  0  0  0  0  0  0  0
    2.7530    0.5702    2.0357 O   0  0  0  0  0  0  0  0  0  0  0  0
    1.6321   -0.9384    3.5477 C   0  0  0  0  0  0  0  0  0  0  0  0
    2.8447    4.0797   -2.7792 H   0  0  0  0  0  0  0  0  0  0  0  0
    2.0496    2.8035   -3.7160 H   0  0  0  0  0  0  0  0  0  0  0  0
    1.0769    4.0423   -2.8978 H   0  0  0  0  0  0  0  0  0  0  0  0
    2.8396    1.9619   -1.4977 H   0  0  0  0  0  0  0  0  0  0  0  0
    1.8861    3.2076   -0.6885 H   0  0  0  0  0  0  0  0  0  0  0  0
    0.7179    1.0474   -2.5211 H   0  0  0  0  0  0  0  0  0  0  0  0
   -0.2187    2.2156   -1.6046 H   0  0  0  0  0  0  0  0  0  0  0  0
    1.6188    0.0938   -0.3601 H   0  0  0  0  0  0  0  0  0  0  0  0
   -1.3181    0.0080   -0.8521 H   0  0  0  0  0  0  0  0  0  0  0  0
   -2.0803   -2.2058   -1.2839 H   0  0  0  0  0  0  0  0  0  0  0  0
   -3.3245   -2.9751    0.8885 H   0  0  0  0  0  0  0  0  0  0  0  0
   -2.0018   -2.1951    1.7993 H   0  0  0  0  0  0  0  0  0  0  0  0
   -4.5672    0.1912    1.4812 H   0  0  0  0  0  0  0  0  0  0  0  0
   -0.6280   -4.0470   -1.1650 H   0  0  0  0  0  0  0  0  0  0  0  0
   -0.6488   -4.0885    0.4377 H   0  0  0  0  0  0  0  0  0  0  0  0
    1.1311    2.1694    1.1219 H   0  0  0  0  0  0  0  0  0  0  0  0
   -0.5799    1.8033    0.9500 H   0  0  0  0  0  0  0  0  0  0  0  0
    2.6332   -1.3300    3.7494 H   0  0  0  0  0  0  0  0  0  0  0  0
    0.9987   -1.7710    3.2309 H   0  0  0  0  0  0  0  0  0  0  0  0
    1.2367   -0.4818    4.4581 H   0  0  0  0  0  0  0  0  0  0  0  0
  1  2  1  0
  2  3  1  0
  3  4  1  0
  4  5  1  0
  5  6  1  0
  6  7  2  0
  6  8  1  0
  8  9  1  0
  9 10  1  0
 10 11  2  0
 10 12  1  0
  8 13  1  0
  4 14  1  0
 14 15  1  0
 15 16  1  0
 16 17  2  0
 16 18  1  0
  1 19  1  0
  1 20  1  0
  1 21  1  0
  2 22  1  0
  2 23  1  0
  3 24  1  0
  3 25  1  0
  4 26  1  0
  5 27  1  0
  8 28  1  0
  9 29  1  0
  9 30  1  0
 12 31  1  0
 13 32  1  0
 13 33  1  0
 14 34  1  0
 14 35  1  0
 18 36  1  0
 18 37  1  0
 18 38  1  0
M  END
