
     RDKit          3D

 35 34  0  0  0  0  0  0  0  0999 V2000
   -0.0242    4.6494    0.6195 C   0  0  0  0  0  0  0  0  0  0  0  0
    0.0202    3.2587    0.2870 O   0  0  0  0  0  0  0  0  0  0  0  0
   -1.1578    2.7495   -0.1783 C   0  0  0  0  0  0  0  0  0  0  0  0
   -2.1957    3.3935   -0.2755 O   0  0  0  0  0  0  0  0  0  0  0  0
   -1.0365    1.2671   -0.5534 C   0  0  0  0  0  0  0  0  0  0  0  0
    0.3100    0.7363   -0.3102 N   0  0  0  0  0  0  0  0  0  0  0  0
    0.9449   -0.1431   -1.1507 C   0  0  0  0  0  0  0  0  0  0  0  0
    0.4476   -0.5578   -2.1954 O   0  0  0  0  0  0  0  0  0  0  0  0
    2.3540   -0.5780   -0.6733 C   0  0  0  0  0  0  0  0  0  0  0  0
    2.2690   -1.8210    0.2111 C   0  0  0  0  0  0  0  0  0  0  0  0
    1.4293   -1.5494    1.4247 C   0  0  0  0  0  0  0  0  0  0  0  0
    1.2837   -0.4671    1.9698 O   0  0  0  0  0  0  0  0  0  0  0  0
    0.7856   -2.6516    1.8504 O   0  0  0  0  0  0  0  0  0  0  0  0
    3.2023   -0.8625   -1.8573 N   0  0  0  0  0  0  0  0  0  0  0  0
   -2.0945    0.4928    0.2417 C   0  0  0  0  0  0  0  0  0  0  0  0
   -2.2617   -0.8251   -0.3130 O   0  0  0  0  0  0  0  0  0  0  0  0
   -2.0562   -1.8808    0.5143 C   0  0  0  0  0  0  0  0  0  0  0  0
   -1.7447   -1.8152    1.6969 O   0  0  0  0  0  0  0  0  0  0  0  0
   -2.2032   -3.1659   -0.2431 C   0  0  0  0  0  0  0  0  0  0  0  0
   -0.4498    5.2335   -0.2035 H   0  0  0  0  0  0  0  0  0  0  0  0
    0.9991    4.9895    0.7864 H   0  0  0  0  0  0  0  0  0  0  0  0
   -0.6108    4.7945    1.5336 H   0  0  0  0  0  0  0  0  0  0  0  0
   -1.2343    1.1874   -1.6288 H   0  0  0  0  0  0  0  0  0  0  0  0
    0.7349    0.9438    0.5943 H   0  0  0  0  0  0  0  0  0  0  0  0
    2.8153    0.2544   -0.1266 H   0  0  0  0  0  0  0  0  0  0  0  0
    1.8196   -2.6501   -0.3506 H   0  0  0  0  0  0  0  0  0  0  0  0
    3.2630   -2.1315    0.5512 H   0  0  0  0  0  0  0  0  0  0  0  0
    0.0867   -2.3241    2.4662 H   0  0  0  0  0  0  0  0  0  0  0  0
    2.6823   -1.5143   -2.4569 H   0  0  0  0  0  0  0  0  0  0  0  0
    3.2610   -0.0107   -2.4234 H   0  0  0  0  0  0  0  0  0  0  0  0
   -3.0707    0.9819    0.1609 H   0  0  0  0  0  0  0  0  0  0  0  0
   -1.8318    0.4724    1.3058 H   0  0  0  0  0  0  0  0  0  0  0  0
   -2.4579   -3.9712    0.4525 H   0  0  0  0  0  0  0  0  0  0  0  0
   -1.2647   -3.3981   -0.7512 H   0  0  0  0  0  0  0  0  0  0  0  0
   -3.0139   -3.0871   -0.9749 H   0  0  0  0  0  0  0  0  0  0  0  0
  1  2  1  0
  2  3  1  0
  3  4  2  0
  3  5  1  0
  5  6  1  0
  6  7  1  0
  7  8  2  0
  7  9  1  0
  9 10  1  0
 10 11  1  0
 11 12  2  0
 11 13  1  0
  9 14  1  0
  5 15  1  0
 15 16  1  0
 16 17  1  0
 17 18  2  0
 17 19  1  0
  1 20  1  0
  1 21  1  0
  1 22  1  0
  5 23  1  0
  6 24  1  0
  9 25  1  0
 10 26  1  0
 10 27  1  0
 13 28  1  0
 14 29  1  0
 14 30  1  0
 15 31  1  0
 15 32  1  0
 19 33  1  0
 19 34  1  0
 19 35  1  0
M  END
