
     RDKit          3D

 38 37  0  0  0  0  0  0  0  0999 V2000
    1.1159   -4.4091    0.8189 C   0  0  0  0  0  0  0  0  0  0  0  0
    2.0074   -3.1967    0.6070 C   0  0  0  0  0  0  0  0  0  0  0  0
    1.3799   -2.1880   -0.3262 C   0  0  0  0  0  0  0  0  0  0  0  0
    0.2881   -2.3074   -0.8665 O   0  0  0  0  0  0  0  0  0  0  0  0
    2.2179   -1.1203   -0.4658 O   0  0  0  0  0  0  0  0  0  0  0  0
    1.7622   -0.0403   -1.3059 C   0  0  0  0  0  0  0  0  0  0  0  0
    1.1038    1.0628   -0.4713 C   0  0  0  0  0  0  0  0  0  0  0  0
    0.7908    2.2280   -1.4080 C   0  0  0  0  0  0  0  0  0  0  0  0
   -0.2542    2.3443   -2.0413 O   0  0  0  0  0  0  0  0  0  0  0  0
    1.8537    3.0798   -1.4837 O   0  0  0  0  0  0  0  0  0  0  0  0
    1.6270    4.2154   -2.3209 C   0  0  0  0  0  0  0  0  0  0  0  0
   -0.1367    0.5929    0.1558 N   0  0  0  0  0  0  0  0  0  0  0  0
   -0.7043    1.2830    1.1990 C   0  0  0  0  0  0  0  0  0  0  0  0
   -0.1567    2.2759    1.6847 O   0  0  0  0  0  0  0  0  0  0  0  0
   -2.0174    0.6954    1.8023 C   0  0  0  0  0  0  0  0  0  0  0  0
   -3.0279    0.1883    0.7781 C   0  0  0  0  0  0  0  0  0  0  0  0
   -2.6253   -1.1877    0.3271 C   0  0  0  0  0  0  0  0  0  0  0  0
   -2.7174   -2.2201    0.9670 O   0  0  0  0  0  0  0  0  0  0  0  0
   -2.0013   -1.1434   -0.8714 O   0  0  0  0  0  0  0  0  0  0  0  0
   -2.6603    1.7593    2.6175 N   0  0  0  0  0  0  0  0  0  0  0  0
    0.9279   -4.9285   -0.1275 H   0  0  0  0  0  0  0  0  0  0  0  0
    1.5901   -5.1170    1.5095 H   0  0  0  0  0  0  0  0  0  0  0  0
    0.1466   -4.1184    1.2379 H   0  0  0  0  0  0  0  0  0  0  0  0
    2.1899   -2.7088    1.5699 H   0  0  0  0  0  0  0  0  0  0  0  0
    2.9633   -3.5173    0.1796 H   0  0  0  0  0  0  0  0  0  0  0  0
    1.0936   -0.4063   -2.0949 H   0  0  0  0  0  0  0  0  0  0  0  0
    2.6516    0.3525   -1.8133 H   0  0  0  0  0  0  0  0  0  0  0  0
    1.7724    1.3966    0.3288 H   0  0  0  0  0  0  0  0  0  0  0  0
    0.7821    4.8014   -1.9475 H   0  0  0  0  0  0  0  0  0  0  0  0
    1.4559    3.9015   -3.3573 H   0  0  0  0  0  0  0  0  0  0  0  0
    2.5227    4.8435   -2.2931 H   0  0  0  0  0  0  0  0  0  0  0  0
   -0.7566    0.0751   -0.4628 H   0  0  0  0  0  0  0  0  0  0  0  0
   -1.7143   -0.1086    2.4846 H   0  0  0  0  0  0  0  0  0  0  0  0
   -4.0333    0.0945    1.2070 H   0  0  0  0  0  0  0  0  0  0  0  0
   -3.1123    0.8589   -0.0853 H   0  0  0  0  0  0  0  0  0  0  0  0
   -1.5287   -2.0096   -0.9735 H   0  0  0  0  0  0  0  0  0  0  0  0
   -2.8534    2.5607    2.0131 H   0  0  0  0  0  0  0  0  0  0  0  0
   -1.9425    2.1175    3.2568 H   0  0  0  0  0  0  0  0  0  0  0  0
  1  2  1  0
  2  3  1  0
  3  4  2  0
  3  5  1  0
  5  6  1  0
  6  7  1  0
  7  8  1  0
  8  9  2  0
  8 10  1  0
 10 11  1  0
  7 12  1  0
 12 13  1  0
 13 14  2  0
 13 15  1  0
 15 16  1  0
 16 17  1  0
 17 18  2  0
 17 19  1  0
 15 20  1  0
  1 21  1  0
  1 22  1  0
  1 23  1  0
  2 24  1  0
  2 25  1  0
  6 26  1  0
  6 27  1  0
  7 28  1  0
 11 29  1  0
 11 30  1  0
 11 31  1  0
 12 32  1  0
 15 33  1  0
 16 34  1  0
 16 35  1  0
 19 36  1  0
 20 37  1  0
 20 38  1  0
M  END
