
     RDKit          3D

 41 40  0  0  0  0  0  0  0  0999 V2000
    2.8193    2.0087    3.7206 C   0  0  0  0  0  0  0  0  0  0  0  0
    1.9572    2.5504    2.5876 C   0  0  0  0  0  0  0  0  0  0  0  0
    2.2437    1.8535    1.2561 C   0  0  0  0  0  0  0  0  0  0  0  0
    1.6948    0.4467    1.1977 C   0  0  0  0  0  0  0  0  0  0  0  0
    0.8021    0.0051    1.9104 O   0  0  0  0  0  0  0  0  0  0  0  0
    2.3123   -0.2421    0.1976 O   0  0  0  0  0  0  0  0  0  0  0  0
    1.8368   -1.5810   -0.0383 C   0  0  0  0  0  0  0  0  0  0  0  0
    0.7511   -1.6068   -1.1234 C   0  0  0  0  0  0  0  0  0  0  0  0
    0.5648   -3.0615   -1.5673 C   0  0  0  0  0  0  0  0  0  0  0  0
    1.4643   -3.7595   -2.0217 O   0  0  0  0  0  0  0  0  0  0  0  0
   -0.7149   -3.4934   -1.3588 O   0  0  0  0  0  0  0  0  0  0  0  0
   -0.9534   -4.8388   -1.7776 C   0  0  0  0  0  0  0  0  0  0  0  0
   -0.5063   -1.0119   -0.6574 N   0  0  0  0  0  0  0  0  0  0  0  0
   -0.8405    0.3033   -0.8861 C   0  0  0  0  0  0  0  0  0  0  0  0
   -0.0900    1.0973   -1.4464 O   0  0  0  0  0  0  0  0  0  0  0  0
   -2.2021    0.7054   -0.2769 C   0  0  0  0  0  0  0  0  0  0  0  0
   -2.7710    1.9370   -0.9788 C   0  0  0  0  0  0  0  0  0  0  0  0
   -3.1043    1.6072   -2.4062 C   0  0  0  0  0  0  0  0  0  0  0  0
   -3.2079    0.4959   -2.8980 O   0  0  0  0  0  0  0  0  0  0  0  0
   -3.3308    2.7106   -3.1450 O   0  0  0  0  0  0  0  0  0  0  0  0
   -2.0042    0.9874    1.1660 N   0  0  0  0  0  0  0  0  0  0  0  0
    2.6203    2.5596    4.6463 H   0  0  0  0  0  0  0  0  0  0  0  0
    2.6144    0.9487    3.9068 H   0  0  0  0  0  0  0  0  0  0  0  0
    3.8861    2.1168    3.4864 H   0  0  0  0  0  0  0  0  0  0  0  0
    0.8973    2.4556    2.8586 H   0  0  0  0  0  0  0  0  0  0  0  0
    2.1666    3.6219    2.4765 H   0  0  0  0  0  0  0  0  0  0  0  0
    3.3264    1.8270    1.0768 H   0  0  0  0  0  0  0  0  0  0  0  0
    1.7734    2.4172    0.4413 H   0  0  0  0  0  0  0  0  0  0  0  0
    2.7137   -2.1561   -0.3587 H   0  0  0  0  0  0  0  0  0  0  0  0
    1.4892   -2.0519    0.8915 H   0  0  0  0  0  0  0  0  0  0  0  0
    1.0789   -1.0368   -2.0004 H   0  0  0  0  0  0  0  0  0  0  0  0
   -0.3471   -5.5342   -1.1891 H   0  0  0  0  0  0  0  0  0  0  0  0
   -0.7478   -4.9520   -2.8470 H   0  0  0  0  0  0  0  0  0  0  0  0
   -2.0093   -5.0645   -1.6045 H   0  0  0  0  0  0  0  0  0  0  0  0
   -1.1804   -1.6236   -0.2078 H   0  0  0  0  0  0  0  0  0  0  0  0
   -2.8942   -0.1389   -0.3675 H   0  0  0  0  0  0  0  0  0  0  0  0
   -3.6943    2.2651   -0.4876 H   0  0  0  0  0  0  0  0  0  0  0  0
   -2.0505    2.7651   -0.9643 H   0  0  0  0  0  0  0  0  0  0  0  0
   -3.5202    2.3695   -4.0442 H   0  0  0  0  0  0  0  0  0  0  0  0
   -1.4438    1.8364    1.2624 H   0  0  0  0  0  0  0  0  0  0  0  0
   -1.3998    0.2621    1.5705 H   0  0  0  0  0  0  0  0  0  0  0  0
  1  2  1  0
  2  3  1  0
  3  4  1  0
  4  5  2  0
  4  6  1  0
  6  7  1  0
  7  8  1  0
  8  9  1  0
  9 10  2  0
  9 11  1  0
 11 12  1  0
  8 13  1  0
 13 14  1  0
 14 15  2  0
 14 16  1  0
 16 17  1  0
 17 18  1  0
 18 19  2  0
 18 20  1  0
 16 21  1  0
  1 22  1  0
  1 23  1  0
  1 24  1  0
  2 25  1  0
  2 26  1  0
  3 27  1  0
  3 28  1  0
  7 29  1  0
  7 30  1  0
  8 31  1  0
 12 32  1  0
 12 33  1  0
 12 34  1  0
 13 35  1  0
 16 36  1  0
 17 37  1  0
 17 38  1  0
 20 39  1  0
 21 40  1  0
 21 41  1  0
M  END
