
     RDKit          3D

 41 40  0  0  0  0  0  0  0  0999 V2000
    2.9524    2.5102   -2.1465 C   0  0  0  0  0  0  0  0  0  0  0  0
    2.1454    1.6627   -1.3280 O   0  0  0  0  0  0  0  0  0  0  0  0
    0.9643    2.2248   -0.9353 C   0  0  0  0  0  0  0  0  0  0  0  0
    0.5835    3.3382   -1.2798 O   0  0  0  0  0  0  0  0  0  0  0  0
    0.1446    1.2852   -0.0402 C   0  0  0  0  0  0  0  0  0  0  0  0
    0.8341    0.0211    0.2551 N   0  0  0  0  0  0  0  0  0  0  0  0
    1.7775   -0.0425    1.2545 C   0  0  0  0  0  0  0  0  0  0  0  0
    1.9793    0.8801    2.0422 O   0  0  0  0  0  0  0  0  0  0  0  0
    2.5806   -1.3646    1.3058 C   0  0  0  0  0  0  0  0  0  0  0  0
    3.7430   -1.3147    0.3127 C   0  0  0  0  0  0  0  0  0  0  0  0
    3.2731   -1.5685   -1.0919 C   0  0  0  0  0  0  0  0  0  0  0  0
    2.1164   -1.6641   -1.4724 O   0  0  0  0  0  0  0  0  0  0  0  0
    4.2954   -1.6667   -1.9621 O   0  0  0  0  0  0  0  0  0  0  0  0
    3.1086   -1.5425    2.6811 N   0  0  0  0  0  0  0  0  0  0  0  0
   -1.1950    1.0234   -0.7333 C   0  0  0  0  0  0  0  0  0  0  0  0
   -2.0760    0.3496    0.1844 O   0  0  0  0  0  0  0  0  0  0  0  0
   -3.2571   -0.0538   -0.3629 C   0  0  0  0  0  0  0  0  0  0  0  0
   -3.5772    0.1182   -1.5305 O   0  0  0  0  0  0  0  0  0  0  0  0
   -4.1093   -0.7376    0.6901 C   0  0  0  0  0  0  0  0  0  0  0  0
   -5.1903   -1.5954    0.0377 C   0  0  0  0  0  0  0  0  0  0  0  0
   -4.7254    0.3070    1.6132 C   0  0  0  0  0  0  0  0  0  0  0  0
    3.8780    1.9754   -2.3766 H   0  0  0  0  0  0  0  0  0  0  0  0
    3.2081    3.4307   -1.6124 H   0  0  0  0  0  0  0  0  0  0  0  0
    2.4390    2.7349   -3.0864 H   0  0  0  0  0  0  0  0  0  0  0  0
   -0.0179    1.8012    0.9135 H   0  0  0  0  0  0  0  0  0  0  0  0
    0.9382   -0.6384   -0.5172 H   0  0  0  0  0  0  0  0  0  0  0  0
    1.9051   -2.2016    1.0949 H   0  0  0  0  0  0  0  0  0  0  0  0
    4.2456   -0.3410    0.3394 H   0  0  0  0  0  0  0  0  0  0  0  0
    4.4715   -2.0990    0.5529 H   0  0  0  0  0  0  0  0  0  0  0  0
    3.8798   -1.8362   -2.8334 H   0  0  0  0  0  0  0  0  0  0  0  0
    3.5868   -0.6722    2.9390 H   0  0  0  0  0  0  0  0  0  0  0  0
    2.3123   -1.5672    3.3224 H   0  0  0  0  0  0  0  0  0  0  0  0
   -1.0436    0.4019   -1.6254 H   0  0  0  0  0  0  0  0  0  0  0  0
   -1.6667    1.9668   -1.0336 H   0  0  0  0  0  0  0  0  0  0  0  0
   -3.4576   -1.4054    1.2672 H   0  0  0  0  0  0  0  0  0  0  0  0
   -5.7679   -2.1357    0.7950 H   0  0  0  0  0  0  0  0  0  0  0  0
   -4.7458   -2.3332   -0.6392 H   0  0  0  0  0  0  0  0  0  0  0  0
   -5.8864   -0.9856   -0.5491 H   0  0  0  0  0  0  0  0  0  0  0  0
   -3.9494    0.8968    2.1128 H   0  0  0  0  0  0  0  0  0  0  0  0
   -5.3377   -0.1674    2.3870 H   0  0  0  0  0  0  0  0  0  0  0  0
   -5.3591    1.0054    1.0552 H   0  0  0  0  0  0  0  0  0  0  0  0
  1  2  1  0
  2  3  1  0
  3  4  2  0
  3  5  1  0
  5  6  1  0
  6  7  1  0
  7  8  2  0
  7  9  1  0
  9 10  1  0
 10 11  1  0
 11 12  2  0
 11 13  1  0
  9 14  1  0
  5 15  1  0
 15 16  1  0
 16 17  1  0
 17 18  2  0
 17 19  1  0
 19 20  1  0
 19 21  1  0
  1 22  1  0
  1 23  1  0
  1 24  1  0
  5 25  1  0
  6 26  1  0
  9 27  1  0
 10 28  1  0
 10 29  1  0
 13 30  1  0
 14 31  1  0
 14 32  1  0
 15 33  1  0
 15 34  1  0
 19 35  1  0
 20 36  1  0
 20 37  1  0
 20 38  1  0
 21 39  1  0
 21 40  1  0
 21 41  1  0
M  END
