
     RDKit          3D

 26 26  0  0  0  0  0  0  0  0999 V2000
   -4.4014   -0.4682    0.1909 C   0  0  0  0  0  0  0  0  0  0  0  0
   -3.2240    0.3907   -0.2341 C   0  0  0  0  0  0  0  0  0  0  0  0
   -1.8921   -0.3171   -0.0046 C   0  0  0  0  0  0  0  0  0  0  0  0
   -0.8522    0.5630   -0.4327 O   0  0  0  0  0  0  0  0  0  0  0  0
    0.4408    0.1649   -0.2467 C   0  0  0  0  0  0  0  0  0  0  0  0
    0.8305   -1.0982    0.1998 C   0  0  0  0  0  0  0  0  0  0  0  0
    2.1912   -1.4221    0.3221 C   0  0  0  0  0  0  0  0  0  0  0  0
    3.1921   -0.5156   -0.0404 C   0  0  0  0  0  0  0  0  0  0  0  0
    2.8165    0.7665   -0.4298 C   0  0  0  0  0  0  0  0  0  0  0  0
    1.4548    1.0830   -0.5410 C   0  0  0  0  0  0  0  0  0  0  0  0
    1.1154    2.4247   -0.9667 N   0  0  0  0  0  4  0  0  0  0  0  0
    0.5236    3.1515   -0.1568 O   0  0  0  0  0  1  0  0  0  0  0  0
    1.4952    2.7648   -2.0969 O   0  0  0  0  0  0  0  0  0  0  0  0
    4.5347   -0.8160    0.1996 N   0  0  0  0  0  0  0  0  0  0  0  0
   -4.4292   -1.4040   -0.3764 H   0  0  0  0  0  0  0  0  0  0  0  0
   -4.3436   -0.7135    1.2562 H   0  0  0  0  0  0  0  0  0  0  0  0
   -5.3418    0.0634    0.0154 H   0  0  0  0  0  0  0  0  0  0  0  0
   -3.3208    0.6573   -1.2934 H   0  0  0  0  0  0  0  0  0  0  0  0
   -3.2362    1.3384    0.3176 H   0  0  0  0  0  0  0  0  0  0  0  0
   -1.8639   -1.2422   -0.5925 H   0  0  0  0  0  0  0  0  0  0  0  0
   -1.7786   -0.5458    1.0619 H   0  0  0  0  0  0  0  0  0  0  0  0
    0.1065   -1.8613    0.4682 H   0  0  0  0  0  0  0  0  0  0  0  0
    2.4621   -2.4049    0.7030 H   0  0  0  0  0  0  0  0  0  0  0  0
    3.5712    1.5187   -0.6453 H   0  0  0  0  0  0  0  0  0  0  0  0
    4.7541   -1.8076    0.1841 H   0  0  0  0  0  0  0  0  0  0  0  0
    5.1952   -0.2704   -0.3467 H   0  0  0  0  0  0  0  0  0  0  0  0
  1  2  1  0
  2  3  1  0
  3  4  1  0
  4  5  1  0
  5  6  2  0
  6  7  1  0
  7  8  2  0
  8  9  1  0
  9 10  2  0
 10 11  1  0
 11 12  1  0
 11 13  2  0
  8 14  1  0
 10  5  1  0
  1 15  1  0
  1 16  1  0
  1 17  1  0
  2 18  1  0
  2 19  1  0
  3 20  1  0
  3 21  1  0
  6 22  1  0
  7 23  1  0
  9 24  1  0
 14 25  1  0
 14 26  1  0
M  CHG  2  11   1  12  -1
M  END
