
     RDKit          3D

 44 43  0  0  0  0  0  0  0  0999 V2000
    1.7447   -2.9799   -3.5090 C   0  0  0  0  0  0  0  0  0  0  0  0
    1.0294   -3.0431   -2.2744 O   0  0  0  0  0  0  0  0  0  0  0  0
    0.3319   -1.9077   -1.9800 C   0  0  0  0  0  0  0  0  0  0  0  0
    0.2963   -0.9051   -2.6846 O   0  0  0  0  0  0  0  0  0  0  0  0
   -0.3885   -2.0575   -0.6422 C   0  0  0  0  0  0  0  0  0  0  0  0
   -1.4448   -1.0527   -0.5288 N   0  0  0  0  0  0  0  0  0  0  0  0
   -2.4923   -1.2150    0.3424 C   0  0  0  0  0  0  0  0  0  0  0  0
   -2.6169   -2.2268    1.0339 O   0  0  0  0  0  0  0  0  0  0  0  0
   -3.5336   -0.0685    0.3579 C   0  0  0  0  0  0  0  0  0  0  0  0
   -3.0393    1.1221    1.1764 C   0  0  0  0  0  0  0  0  0  0  0  0
   -2.1547    2.0095    0.3490 C   0  0  0  0  0  0  0  0  0  0  0  0
   -1.5669    1.7080   -0.6785 O   0  0  0  0  0  0  0  0  0  0  0  0
   -2.0399    3.2480    0.8657 O   0  0  0  0  0  0  0  0  0  0  0  0
   -4.7919   -0.5909    0.9550 N   0  0  0  0  0  0  0  0  0  0  0  0
    0.6245   -2.0048    0.5078 C   0  0  0  0  0  0  0  0  0  0  0  0
    1.5120   -0.8748    0.3899 O   0  0  0  0  0  0  0  0  0  0  0  0
    1.1575    0.2678    1.0405 C   0  0  0  0  0  0  0  0  0  0  0  0
    0.1500    0.3943    1.7230 O   0  0  0  0  0  0  0  0  0  0  0  0
    2.1929    1.3696    0.7974 C   0  0  0  0  0  0  0  0  0  0  0  0
    1.7788    2.6412    1.5538 C   0  0  0  0  0  0  0  0  0  0  0  0
    2.2647    1.6799   -0.7036 C   0  0  0  0  0  0  0  0  0  0  0  0
    3.5620    0.9076    1.3145 C   0  0  0  0  0  0  0  0  0  0  0  0
    2.5084   -2.1971   -3.4668 H   0  0  0  0  0  0  0  0  0  0  0  0
    2.2424   -3.9415   -3.6617 H   0  0  0  0  0  0  0  0  0  0  0  0
    1.0581   -2.8087   -4.3438 H   0  0  0  0  0  0  0  0  0  0  0  0
   -0.8887   -3.0339   -0.6393 H   0  0  0  0  0  0  0  0  0  0  0  0
   -1.2920   -0.1421   -0.9702 H   0  0  0  0  0  0  0  0  0  0  0  0
   -3.7545    0.2155   -0.6777 H   0  0  0  0  0  0  0  0  0  0  0  0
   -2.4918    0.8048    2.0696 H   0  0  0  0  0  0  0  0  0  0  0  0
   -3.8959    1.7322    1.4905 H   0  0  0  0  0  0  0  0  0  0  0  0
   -1.4406    3.7212    0.2528 H   0  0  0  0  0  0  0  0  0  0  0  0
   -5.0820   -1.4024    0.4040 H   0  0  0  0  0  0  0  0  0  0  0  0
   -4.5450   -1.0047    1.8602 H   0  0  0  0  0  0  0  0  0  0  0  0
    1.2671   -2.8918    0.4689 H   0  0  0  0  0  0  0  0  0  0  0  0
    0.1346   -2.0187    1.4884 H   0  0  0  0  0  0  0  0  0  0  0  0
    2.5087    3.4456    1.4096 H   0  0  0  0  0  0  0  0  0  0  0  0
    1.6954    2.4538    2.6306 H   0  0  0  0  0  0  0  0  0  0  0  0
    0.8063    3.0090    1.2095 H   0  0  0  0  0  0  0  0  0  0  0  0
    2.6036    0.8114   -1.2796 H   0  0  0  0  0  0  0  0  0  0  0  0
    2.9602    2.5022   -0.9059 H   0  0  0  0  0  0  0  0  0  0  0  0
    1.2815    1.9644   -1.0949 H   0  0  0  0  0  0  0  0  0  0  0  0
    3.5089    0.6306    2.3738 H   0  0  0  0  0  0  0  0  0  0  0  0
    3.9264    0.0307    0.7674 H   0  0  0  0  0  0  0  0  0  0  0  0
    4.3131    1.6983    1.2088 H   0  0  0  0  0  0  0  0  0  0  0  0
  1  2  1  0
  2  3  1  0
  3  4  2  0
  3  5  1  0
  5  6  1  0
  6  7  1  0
  7  8  2  0
  7  9  1  0
  9 10  1  0
 10 11  1  0
 11 12  2  0
 11 13  1  0
  9 14  1  0
  5 15  1  0
 15 16  1  0
 16 17  1  0
 17 18  2  0
 17 19  1  0
 19 20  1  0
 19 21  1  0
 19 22  1  0
  1 23  1  0
  1 24  1  0
  1 25  1  0
  5 26  1  0
  6 27  1  0
  9 28  1  0
 10 29  1  0
 10 30  1  0
 13 31  1  0
 14 32  1  0
 14 33  1  0
 15 34  1  0
 15 35  1  0
 20 36  1  0
 20 37  1  0
 20 38  1  0
 21 39  1  0
 21 40  1  0
 21 41  1  0
 22 42  1  0
 22 43  1  0
 22 44  1  0
M  END
