
     RDKit          3D

 35 34  0  0  0  0  0  0  0  0999 V2000
    0.6018    0.3075    2.3567 C   0  0  0  0  0  0  0  0  0  0  0  0
    0.3823    0.2938    0.8427 C   0  0  0  0  0  0  0  0  0  0  0  0
   -1.0555    0.2363    0.5770 N   0  0  0  0  0  0  0  0  0  0  0  0
   -1.6022    0.6363   -0.6205 C   0  0  0  0  0  0  0  0  0  0  0  0
   -0.9276    1.0989   -1.5393 O   0  0  0  0  0  0  0  0  0  0  0  0
   -3.1372    0.4489   -0.7333 C   0  0  0  0  0  0  0  0  0  0  0  0
   -3.8773    1.4334    0.1732 C   0  0  0  0  0  0  0  0  0  0  0  0
   -3.9410    0.9297    1.5879 C   0  0  0  0  0  0  0  0  0  0  0  0
   -3.3614   -0.0413    2.0489 O   0  0  0  0  0  0  0  0  0  0  0  0
   -4.7217    1.7009    2.3678 O   0  0  0  0  0  0  0  0  0  0  0  0
   -3.5386    0.6816   -2.1447 N   0  0  0  0  0  0  0  0  0  0  0  0
    1.0992   -0.8829    0.1700 C   0  0  0  0  0  0  0  0  0  0  0  0
    2.5971   -0.7039    0.1388 C   0  0  0  0  0  0  0  0  0  0  0  0
    3.2058    0.2836    0.5230 O   0  0  0  0  0  0  0  0  0  0  0  0
    3.1711   -1.8227   -0.3909 O   0  0  0  0  0  0  0  0  0  0  0  0
    4.6021   -1.8002   -0.5000 C   0  0  0  0  0  0  0  0  0  0  0  0
    5.0176   -1.1462   -1.8044 C   0  0  0  0  0  0  0  0  0  0  0  0
    0.2257   -0.6118    2.8198 H   0  0  0  0  0  0  0  0  0  0  0  0
    1.6598    0.4091    2.6145 H   0  0  0  0  0  0  0  0  0  0  0  0
    0.0654    1.1464    2.8146 H   0  0  0  0  0  0  0  0  0  0  0  0
    0.7519    1.2386    0.4251 H   0  0  0  0  0  0  0  0  0  0  0  0
   -1.6567   -0.2428    1.2489 H   0  0  0  0  0  0  0  0  0  0  0  0
   -3.3780   -0.5918   -0.4878 H   0  0  0  0  0  0  0  0  0  0  0  0
   -4.9138    1.5480   -0.1677 H   0  0  0  0  0  0  0  0  0  0  0  0
   -3.3921    2.4160    0.1732 H   0  0  0  0  0  0  0  0  0  0  0  0
   -4.6892    1.2893    3.2566 H   0  0  0  0  0  0  0  0  0  0  0  0
   -3.1614    1.5936   -2.4233 H   0  0  0  0  0  0  0  0  0  0  0  0
   -3.0045    0.0315   -2.7277 H   0  0  0  0  0  0  0  0  0  0  0  0
    0.8632   -1.8166    0.6941 H   0  0  0  0  0  0  0  0  0  0  0  0
    0.7667   -0.9841   -0.8699 H   0  0  0  0  0  0  0  0  0  0  0  0
    5.0598   -1.3028    0.3627 H   0  0  0  0  0  0  0  0  0  0  0  0
    4.9399   -2.8417   -0.4868 H   0  0  0  0  0  0  0  0  0  0  0  0
    4.5532   -1.6558   -2.6550 H   0  0  0  0  0  0  0  0  0  0  0  0
    4.6913   -0.1021   -1.8421 H   0  0  0  0  0  0  0  0  0  0  0  0
    6.1042   -1.1769   -1.9247 H   0  0  0  0  0  0  0  0  0  0  0  0
  1  2  1  0
  2  3  1  0
  3  4  1  0
  4  5  2  0
  4  6  1  0
  6  7  1  0
  7  8  1  0
  8  9  2  0
  8 10  1  0
  6 11  1  0
  2 12  1  0
 12 13  1  0
 13 14  2  0
 13 15  1  0
 15 16  1  0
 16 17  1  0
  1 18  1  0
  1 19  1  0
  1 20  1  0
  2 21  1  0
  3 22  1  0
  6 23  1  0
  7 24  1  0
  7 25  1  0
 10 26  1  0
 11 27  1  0
 11 28  1  0
 12 29  1  0
 12 30  1  0
 16 31  1  0
 16 32  1  0
 17 33  1  0
 17 34  1  0
 17 35  1  0
M  END
