
     RDKit          3D

 38 37  0  0  0  0  0  0  0  0999 V2000
   -0.3237    1.5883   -1.8515 C   0  0  0  0  0  0  0  0  0  0  0  0
   -0.2557    0.3245   -0.9921 C   0  0  0  0  0  0  0  0  0  0  0  0
    0.7343    0.4733    0.1692 C   0  0  0  0  0  0  0  0  0  0  0  0
    2.1707    0.4594   -0.2923 C   0  0  0  0  0  0  0  0  0  0  0  0
    2.5499    0.2789   -1.4399 O   0  0  0  0  0  0  0  0  0  0  0  0
    2.9868    0.6809    0.7783 O   0  0  0  0  0  0  0  0  0  0  0  0
    4.4017    0.6792    0.5100 C   0  0  0  0  0  0  0  0  0  0  0  0
    4.9217   -0.7538    0.5210 C   0  0  0  0  0  0  0  0  0  0  0  0
    5.0673    1.5028    1.6058 C   0  0  0  0  0  0  0  0  0  0  0  0
   -1.5963    0.0276   -0.4864 N   0  0  0  0  0  0  0  0  0  0  0  0
   -1.9642   -1.2280   -0.0610 C   0  0  0  0  0  0  0  0  0  0  0  0
   -1.2053   -2.1952   -0.1049 O   0  0  0  0  0  0  0  0  0  0  0  0
   -3.4087   -1.3335    0.4927 C   0  0  0  0  0  0  0  0  0  0  0  0
   -4.4376   -1.1823   -0.6286 C   0  0  0  0  0  0  0  0  0  0  0  0
   -4.6882    0.2651   -0.9468 C   0  0  0  0  0  0  0  0  0  0  0  0
   -4.0696    1.2286   -0.5219 O   0  0  0  0  0  0  0  0  0  0  0  0
   -5.7025    0.4265   -1.8172 O   0  0  0  0  0  0  0  0  0  0  0  0
   -3.5720   -2.6632    1.1349 N   0  0  0  0  0  0  0  0  0  0  0  0
   -1.0502    1.4624   -2.6623 H   0  0  0  0  0  0  0  0  0  0  0  0
   -0.6428    2.4533   -1.2591 H   0  0  0  0  0  0  0  0  0  0  0  0
    0.6428    1.8255   -2.3050 H   0  0  0  0  0  0  0  0  0  0  0  0
    0.0450   -0.5176   -1.6280 H   0  0  0  0  0  0  0  0  0  0  0  0
    0.5433    1.4082    0.7092 H   0  0  0  0  0  0  0  0  0  0  0  0
    0.6166   -0.3569    0.8757 H   0  0  0  0  0  0  0  0  0  0  0  0
    4.6095    1.1549   -0.4561 H   0  0  0  0  0  0  0  0  0  0  0  0
    4.6856   -1.2486    1.4696 H   0  0  0  0  0  0  0  0  0  0  0  0
    4.4482   -1.3472   -0.2678 H   0  0  0  0  0  0  0  0  0  0  0  0
    6.0051   -0.7831    0.3695 H   0  0  0  0  0  0  0  0  0  0  0  0
    4.8556    1.0850    2.5963 H   0  0  0  0  0  0  0  0  0  0  0  0
    6.1518    1.5472    1.4674 H   0  0  0  0  0  0  0  0  0  0  0  0
    4.6735    2.5250    1.6054 H   0  0  0  0  0  0  0  0  0  0  0  0
   -2.2357    0.8048   -0.3143 H   0  0  0  0  0  0  0  0  0  0  0  0
   -3.5379   -0.5721    1.2704 H   0  0  0  0  0  0  0  0  0  0  0  0
   -4.1074   -1.6891   -1.5424 H   0  0  0  0  0  0  0  0  0  0  0  0
   -5.3988   -1.6069   -0.3131 H   0  0  0  0  0  0  0  0  0  0  0  0
   -5.7758    1.3940   -1.9551 H   0  0  0  0  0  0  0  0  0  0  0  0
   -3.2868   -3.3708    0.4496 H   0  0  0  0  0  0  0  0  0  0  0  0
   -2.8506   -2.7473    1.8563 H   0  0  0  0  0  0  0  0  0  0  0  0
  1  2  1  0
  2  3  1  0
  3  4  1  0
  4  5  2  0
  4  6  1  0
  6  7  1  0
  7  8  1  0
  7  9  1  0
  2 10  1  0
 10 11  1  0
 11 12  2  0
 11 13  1  0
 13 14  1  0
 14 15  1  0
 15 16  2  0
 15 17  1  0
 13 18  1  0
  1 19  1  0
  1 20  1  0
  1 21  1  0
  2 22  1  0
  3 23  1  0
  3 24  1  0
  7 25  1  0
  8 26  1  0
  8 27  1  0
  8 28  1  0
  9 29  1  0
  9 30  1  0
  9 31  1  0
 10 32  1  0
 13 33  1  0
 14 34  1  0
 14 35  1  0
 17 36  1  0
 18 37  1  0
 18 38  1  0
M  END
