
     RDKit          3D

 41 40  0  0  0  0  0  0  0  0999 V2000
   -4.3052    1.8808   -0.2414 C   0  0  0  0  0  0  0  0  0  0  0  0
   -4.5947    0.8519    0.8437 C   0  0  0  0  0  0  0  0  0  0  0  0
   -3.8230   -0.4554    0.6233 C   0  0  0  0  0  0  0  0  0  0  0  0
   -2.4154   -0.1632    0.7236 O   0  0  0  0  0  0  0  0  0  0  0  0
   -1.5747   -1.0081    0.0589 C   0  0  0  0  0  0  0  0  0  0  0  0
   -1.9247   -1.9844   -0.5871 O   0  0  0  0  0  0  0  0  0  0  0  0
   -0.1530   -0.5420    0.2528 C   0  0  0  0  0  0  0  0  0  0  0  0
    0.8673   -1.4829   -0.3993 C   0  0  0  0  0  0  0  0  0  0  0  0
    2.1807   -0.8412   -0.4703 N   0  0  0  0  0  0  0  0  0  0  0  0
    2.4789    0.1076   -1.4223 C   0  0  0  0  0  0  0  0  0  0  0  0
    1.6975    0.4341   -2.3143 O   0  0  0  0  0  0  0  0  0  0  0  0
    3.8826    0.7451   -1.2837 C   0  0  0  0  0  0  0  0  0  0  0  0
    3.8432    1.8985   -0.2811 C   0  0  0  0  0  0  0  0  0  0  0  0
    3.8824    1.3932    1.1334 C   0  0  0  0  0  0  0  0  0  0  0  0
    3.7405    0.2390    1.5058 O   0  0  0  0  0  0  0  0  0  0  0  0
    4.0703    2.3859    2.0233 O   0  0  0  0  0  0  0  0  0  0  0  0
    4.3001    1.2561   -2.6137 N   0  0  0  0  0  0  0  0  0  0  0  0
    1.0044   -2.7984    0.3693 C   0  0  0  0  0  0  0  0  0  0  0  0
   -4.1941   -1.4808    1.6908 C   0  0  0  0  0  0  0  0  0  0  0  0
   -4.8933    2.7875   -0.0672 H   0  0  0  0  0  0  0  0  0  0  0  0
   -4.5680    1.4914   -1.2301 H   0  0  0  0  0  0  0  0  0  0  0  0
   -3.2482    2.1632   -0.2524 H   0  0  0  0  0  0  0  0  0  0  0  0
   -4.3203    1.2891    1.8116 H   0  0  0  0  0  0  0  0  0  0  0  0
   -5.6720    0.6506    0.8640 H   0  0  0  0  0  0  0  0  0  0  0  0
   -4.0654   -0.8465   -0.3731 H   0  0  0  0  0  0  0  0  0  0  0  0
    0.0487   -0.4541    1.3271 H   0  0  0  0  0  0  0  0  0  0  0  0
   -0.0808    0.4592   -0.1887 H   0  0  0  0  0  0  0  0  0  0  0  0
    0.5584   -1.7069   -1.4280 H   0  0  0  0  0  0  0  0  0  0  0  0
    2.7754   -0.8784    0.3593 H   0  0  0  0  0  0  0  0  0  0  0  0
    4.5994   -0.0277   -0.9825 H   0  0  0  0  0  0  0  0  0  0  0  0
    4.7242    2.5384   -0.4171 H   0  0  0  0  0  0  0  0  0  0  0  0
    2.9409    2.5074   -0.4086 H   0  0  0  0  0  0  0  0  0  0  0  0
    4.0888    1.9509    2.9015 H   0  0  0  0  0  0  0  0  0  0  0  0
    4.3134    0.4646   -3.2619 H   0  0  0  0  0  0  0  0  0  0  0  0
    3.5301    1.8323   -2.9725 H   0  0  0  0  0  0  0  0  0  0  0  0
    1.7506   -3.4451   -0.1062 H   0  0  0  0  0  0  0  0  0  0  0  0
    1.3337   -2.6230    1.3997 H   0  0  0  0  0  0  0  0  0  0  0  0
    0.0606   -3.3499    0.4044 H   0  0  0  0  0  0  0  0  0  0  0  0
   -3.6469   -2.4170    1.5393 H   0  0  0  0  0  0  0  0  0  0  0  0
   -3.9265   -1.1197    2.6897 H   0  0  0  0  0  0  0  0  0  0  0  0
   -5.2656   -1.7024    1.6725 H   0  0  0  0  0  0  0  0  0  0  0  0
  1  2  1  0
  2  3  1  0
  3  4  1  0
  4  5  1  0
  5  6  2  0
  5  7  1  0
  7  8  1  0
  8  9  1  0
  9 10  1  0
 10 11  2  0
 10 12  1  0
 12 13  1  0
 13 14  1  0
 14 15  2  0
 14 16  1  0
 12 17  1  0
  8 18  1  0
  3 19  1  0
  1 20  1  0
  1 21  1  0
  1 22  1  0
  2 23  1  0
  2 24  1  0
  3 25  1  0
  7 26  1  0
  7 27  1  0
  8 28  1  0
  9 29  1  0
 12 30  1  0
 13 31  1  0
 13 32  1  0
 16 33  1  0
 17 34  1  0
 17 35  1  0
 18 36  1  0
 18 37  1  0
 18 38  1  0
 19 39  1  0
 19 40  1  0
 19 41  1  0
M  END
