
     RDKit          3D

 41 40  0  0  0  0  0  0  0  0999 V2000
   -0.3320    2.0861   -1.8427 C   0  0  0  0  0  0  0  0  0  0  0  0
    0.1628    0.6866   -1.4730 C   0  0  0  0  0  0  0  0  0  0  0  0
   -0.2763    0.2777   -0.0618 C   0  0  0  0  0  0  0  0  0  0  0  0
   -1.7547   -0.0147    0.0244 C   0  0  0  0  0  0  0  0  0  0  0  0
   -2.5320   -0.0170   -0.9169 O   0  0  0  0  0  0  0  0  0  0  0  0
   -2.0751   -0.2738    1.3224 O   0  0  0  0  0  0  0  0  0  0  0  0
   -3.4360   -0.6076    1.7008 C   0  0  0  0  0  0  0  0  0  0  0  0
   -4.3937    0.5538    1.4139 C   0  0  0  0  0  0  0  0  0  0  0  0
   -3.3742   -0.8288    3.2198 C   0  0  0  0  0  0  0  0  0  0  0  0
   -3.8953   -1.9087    1.0339 C   0  0  0  0  0  0  0  0  0  0  0  0
    1.6226    0.6626   -1.5786 N   0  0  0  0  0  0  0  0  0  0  0  0
    2.3264   -0.5122   -1.7203 C   0  0  0  0  0  0  0  0  0  0  0  0
    1.7850   -1.6102   -1.8383 O   0  0  0  0  0  0  0  0  0  0  0  0
    3.8657   -0.3495   -1.7112 C   0  0  0  0  0  0  0  0  0  0  0  0
    4.3863   -0.3219   -0.2739 C   0  0  0  0  0  0  0  0  0  0  0  0
    4.1703    1.0232    0.3602 C   0  0  0  0  0  0  0  0  0  0  0  0
    3.5314    1.9578   -0.0968 O   0  0  0  0  0  0  0  0  0  0  0  0
    4.7564    1.1152    1.5685 O   0  0  0  0  0  0  0  0  0  0  0  0
    4.4649   -1.4992   -2.4344 N   0  0  0  0  0  0  0  0  0  0  0  0
   -1.4239    2.1475   -1.8365 H   0  0  0  0  0  0  0  0  0  0  0  0
    0.0548    2.8390   -1.1470 H   0  0  0  0  0  0  0  0  0  0  0  0
    0.0112    2.3621   -2.8462 H   0  0  0  0  0  0  0  0  0  0  0  0
   -0.2290   -0.0311   -2.2046 H   0  0  0  0  0  0  0  0  0  0  0  0
   -0.0285    1.0720    0.6526 H   0  0  0  0  0  0  0  0  0  0  0  0
    0.2490   -0.6333    0.2486 H   0  0  0  0  0  0  0  0  0  0  0  0
   -4.5319    0.7151    0.3406 H   0  0  0  0  0  0  0  0  0  0  0  0
   -5.3826    0.3710    1.8475 H   0  0  0  0  0  0  0  0  0  0  0  0
   -4.0012    1.4910    1.8244 H   0  0  0  0  0  0  0  0  0  0  0  0
   -4.3542   -1.0865    3.6340 H   0  0  0  0  0  0  0  0  0  0  0  0
   -3.0088    0.0709    3.7286 H   0  0  0  0  0  0  0  0  0  0  0  0
   -2.6706   -1.6320    3.4685 H   0  0  0  0  0  0  0  0  0  0  0  0
   -4.0269   -1.7894   -0.0460 H   0  0  0  0  0  0  0  0  0  0  0  0
   -4.8512   -2.2510    1.4447 H   0  0  0  0  0  0  0  0  0  0  0  0
   -3.1514   -2.7016    1.1738 H   0  0  0  0  0  0  0  0  0  0  0  0
    2.1379    1.4833   -1.2565 H   0  0  0  0  0  0  0  0  0  0  0  0
    4.1331    0.5640   -2.2550 H   0  0  0  0  0  0  0  0  0  0  0  0
    3.8893   -1.0796    0.3427 H   0  0  0  0  0  0  0  0  0  0  0  0
    5.4671   -0.5089   -0.2666 H   0  0  0  0  0  0  0  0  0  0  0  0
    4.5610    2.0217    1.8859 H   0  0  0  0  0  0  0  0  0  0  0  0
    4.0539   -2.3526   -2.0393 H   0  0  0  0  0  0  0  0  0  0  0  0
    4.1002   -1.4909   -3.3901 H   0  0  0  0  0  0  0  0  0  0  0  0
  1  2  1  0
  2  3  1  0
  3  4  1  0
  4  5  2  0
  4  6  1  0
  6  7  1  0
  7  8  1  0
  7  9  1  0
  7 10  1  0
  2 11  1  0
 11 12  1  0
 12 13  2  0
 12 14  1  0
 14 15  1  0
 15 16  1  0
 16 17  2  0
 16 18  1  0
 14 19  1  0
  1 20  1  0
  1 21  1  0
  1 22  1  0
  2 23  1  0
  3 24  1  0
  3 25  1  0
  8 26  1  0
  8 27  1  0
  8 28  1  0
  9 29  1  0
  9 30  1  0
  9 31  1  0
 10 32  1  0
 10 33  1  0
 10 34  1  0
 11 35  1  0
 14 36  1  0
 15 37  1  0
 15 38  1  0
 18 39  1  0
 19 40  1  0
 19 41  1  0
M  END
