
     RDKit          3D

 45 45  0  0  0  0  0  0  0  0999 V2000
    0.5175   -1.0888    0.8671 C   0  0  0  0  0  0  0  0  0  0  0  0
    0.9225   -0.8992   -0.5978 C   0  0  0  0  0  0  0  0  0  0  0  0
    2.3316   -0.5148   -0.6717 N   0  0  0  0  0  0  0  0  0  0  0  0
    3.3468   -1.4421   -0.5795 C   0  0  0  0  0  0  0  0  0  0  0  0
    3.1530   -2.6557   -0.5394 O   0  0  0  0  0  0  0  0  0  0  0  0
    4.7706   -0.8354   -0.5295 C   0  0  0  0  0  0  0  0  0  0  0  0
    5.1266   -0.4371    0.9030 C   0  0  0  0  0  0  0  0  0  0  0  0
    4.4862    0.8683    1.2824 C   0  0  0  0  0  0  0  0  0  0  0  0
    3.6494    1.4890    0.6454 O   0  0  0  0  0  0  0  0  0  0  0  0
    4.9186    1.3192    2.4748 O   0  0  0  0  0  0  0  0  0  0  0  0
    5.7342   -1.8543   -1.0161 N   0  0  0  0  0  0  0  0  0  0  0  0
    0.0650    0.1599   -1.2893 C   0  0  0  0  0  0  0  0  0  0  0  0
   -1.3675   -0.2898   -1.3997 C   0  0  0  0  0  0  0  0  0  0  0  0
   -1.7258   -1.3321   -1.9286 O   0  0  0  0  0  0  0  0  0  0  0  0
   -2.1923    0.6248   -0.8207 O   0  0  0  0  0  0  0  0  0  0  0  0
   -3.5995    0.3077   -0.8226 C   0  0  0  0  0  0  0  0  0  0  0  0
   -3.9270   -0.6354    0.3412 C   0  0  0  0  0  0  0  0  0  0  0  0
   -3.7032    0.0276    1.7006 C   0  0  0  0  0  0  0  0  0  0  0  0
   -4.4764    1.3375    1.8194 C   0  0  0  0  0  0  0  0  0  0  0  0
   -4.1540    2.2893    0.6715 C   0  0  0  0  0  0  0  0  0  0  0  0
   -4.3701    1.6257   -0.6892 C   0  0  0  0  0  0  0  0  0  0  0  0
    1.1513   -1.8364    1.3562 H   0  0  0  0  0  0  0  0  0  0  0  0
   -0.5197   -1.4268    0.9549 H   0  0  0  0  0  0  0  0  0  0  0  0
    0.6220   -0.1538    1.4290 H   0  0  0  0  0  0  0  0  0  0  0  0
    0.8102   -1.8618   -1.1120 H   0  0  0  0  0  0  0  0  0  0  0  0
    2.5695    0.4530   -0.4488 H   0  0  0  0  0  0  0  0  0  0  0  0
    4.8186    0.0221   -1.2106 H   0  0  0  0  0  0  0  0  0  0  0  0
    4.8058   -1.2020    1.6194 H   0  0  0  0  0  0  0  0  0  0  0  0
    6.2113   -0.2986    0.9912 H   0  0  0  0  0  0  0  0  0  0  0  0
    4.4447    2.1640    2.6236 H   0  0  0  0  0  0  0  0  0  0  0  0
    5.4685   -2.1035   -1.9721 H   0  0  0  0  0  0  0  0  0  0  0  0
    5.5486   -2.7188   -0.4950 H   0  0  0  0  0  0  0  0  0  0  0  0
    0.1222    1.1120   -0.7470 H   0  0  0  0  0  0  0  0  0  0  0  0
    0.4260    0.3594   -2.3054 H   0  0  0  0  0  0  0  0  0  0  0  0
   -3.8729   -0.1570   -1.7781 H   0  0  0  0  0  0  0  0  0  0  0  0
   -4.9734   -0.9554    0.2639 H   0  0  0  0  0  0  0  0  0  0  0  0
   -3.3074   -1.5376    0.2892 H   0  0  0  0  0  0  0  0  0  0  0  0
   -2.6333    0.2190    1.8475 H   0  0  0  0  0  0  0  0  0  0  0  0
   -4.0152   -0.6566    2.4978 H   0  0  0  0  0  0  0  0  0  0  0  0
   -5.5527    1.1254    1.8247 H   0  0  0  0  0  0  0  0  0  0  0  0
   -4.2417    1.8192    2.7752 H   0  0  0  0  0  0  0  0  0  0  0  0
   -4.7833    3.1833    0.7473 H   0  0  0  0  0  0  0  0  0  0  0  0
   -3.1138    2.6262    0.7576 H   0  0  0  0  0  0  0  0  0  0  0  0
   -4.0507    2.3232   -1.4725 H   0  0  0  0  0  0  0  0  0  0  0  0
   -5.4411    1.4374   -0.8328 H   0  0  0  0  0  0  0  0  0  0  0  0
  1  2  1  0
  2  3  1  0
  3  4  1  0
  4  5  2  0
  4  6  1  0
  6  7  1  0
  7  8  1  0
  8  9  2  0
  8 10  1  0
  6 11  1  0
  2 12  1  0
 12 13  1  0
 13 14  2  0
 13 15  1  0
 15 16  1  0
 16 17  1  0
 17 18  1  0
 18 19  1  0
 19 20  1  0
 20 21  1  0
 21 16  1  0
  1 22  1  0
  1 23  1  0
  1 24  1  0
  2 25  1  0
  3 26  1  0
  6 27  1  0
  7 28  1  0
  7 29  1  0
 10 30  1  0
 11 31  1  0
 11 32  1  0
 12 33  1  0
 12 34  1  0
 16 35  1  0
 17 36  1  0
 17 37  1  0
 18 38  1  0
 18 39  1  0
 19 40  1  0
 19 41  1  0
 20 42  1  0
 20 43  1  0
 21 44  1  0
 21 45  1  0
M  END
