
     RDKit          3D

 38 37  0  0  0  0  0  0  0  0999 V2000
   -3.9691    1.7531   -2.2079 C   0  0  0  0  0  0  0  0  0  0  0  0
   -4.6376    0.6110   -1.4545 C   0  0  0  0  0  0  0  0  0  0  0  0
   -4.0259    0.3947   -0.0637 C   0  0  0  0  0  0  0  0  0  0  0  0
   -2.6556   -0.0132   -0.2447 O   0  0  0  0  0  0  0  0  0  0  0  0
   -1.8140    0.1948    0.8064 C   0  0  0  0  0  0  0  0  0  0  0  0
   -2.1297    0.6892    1.8778 O   0  0  0  0  0  0  0  0  0  0  0  0
   -0.4368   -0.2924    0.4426 C   0  0  0  0  0  0  0  0  0  0  0  0
    0.4668   -0.3176    1.6666 C   0  0  0  0  0  0  0  0  0  0  0  0
    1.7729   -0.8764    1.3634 N   0  0  0  0  0  0  0  0  0  0  0  0
    2.7503   -0.1286    0.7321 C   0  0  0  0  0  0  0  0  0  0  0  0
    2.6207    1.0617    0.4699 O   0  0  0  0  0  0  0  0  0  0  0  0
    4.0253   -0.9447    0.4226 C   0  0  0  0  0  0  0  0  0  0  0  0
    5.0200   -0.1301   -0.4017 C   0  0  0  0  0  0  0  0  0  0  0  0
    4.4781    0.1343   -1.7792 C   0  0  0  0  0  0  0  0  0  0  0  0
    3.5753   -0.4584   -2.3502 O   0  0  0  0  0  0  0  0  0  0  0  0
    5.1543    1.1253   -2.4003 O   0  0  0  0  0  0  0  0  0  0  0  0
    4.6495   -1.3603    1.7041 N   0  0  0  0  0  0  0  0  0  0  0  0
   -4.7804   -0.7047    0.6817 C   0  0  0  0  0  0  0  0  0  0  0  0
   -4.4233    1.8701   -3.1968 H   0  0  0  0  0  0  0  0  0  0  0  0
   -2.9001    1.5707   -2.3478 H   0  0  0  0  0  0  0  0  0  0  0  0
   -4.0894    2.6961   -1.6674 H   0  0  0  0  0  0  0  0  0  0  0  0
   -4.5322   -0.3020   -2.0520 H   0  0  0  0  0  0  0  0  0  0  0  0
   -5.7079    0.8260   -1.3641 H   0  0  0  0  0  0  0  0  0  0  0  0
   -4.0737    1.3358    0.4991 H   0  0  0  0  0  0  0  0  0  0  0  0
   -0.5228   -1.3073    0.0314 H   0  0  0  0  0  0  0  0  0  0  0  0
   -0.0272    0.3609   -0.3358 H   0  0  0  0  0  0  0  0  0  0  0  0
    0.6014    0.6943    2.0711 H   0  0  0  0  0  0  0  0  0  0  0  0
    0.0332   -0.9398    2.4592 H   0  0  0  0  0  0  0  0  0  0  0  0
    1.8760   -1.8832    1.3627 H   0  0  0  0  0  0  0  0  0  0  0  0
    3.7250   -1.8469   -0.1237 H   0  0  0  0  0  0  0  0  0  0  0  0
    5.2319    0.8294    0.0847 H   0  0  0  0  0  0  0  0  0  0  0  0
    5.9628   -0.6773   -0.5206 H   0  0  0  0  0  0  0  0  0  0  0  0
    4.7109    1.2248   -3.2690 H   0  0  0  0  0  0  0  0  0  0  0  0
    5.0443   -0.5320    2.1542 H   0  0  0  0  0  0  0  0  0  0  0  0
    3.9246   -1.6789    2.3461 H   0  0  0  0  0  0  0  0  0  0  0  0
   -5.8422   -0.4600    0.7831 H   0  0  0  0  0  0  0  0  0  0  0  0
   -4.3666   -0.8538    1.6843 H   0  0  0  0  0  0  0  0  0  0  0  0
   -4.6887   -1.6647    0.1600 H   0  0  0  0  0  0  0  0  0  0  0  0
  1  2  1  0
  2  3  1  0
  3  4  1  0
  4  5  1  0
  5  6  2  0
  5  7  1  0
  7  8  1  0
  8  9  1  0
  9 10  1  0
 10 11  2  0
 10 12  1  0
 12 13  1  0
 13 14  1  0
 14 15  2  0
 14 16  1  0
 12 17  1  0
  3 18  1  0
  1 19  1  0
  1 20  1  0
  1 21  1  0
  2 22  1  0
  2 23  1  0
  3 24  1  0
  7 25  1  0
  7 26  1  0
  8 27  1  0
  8 28  1  0
  9 29  1  0
 12 30  1  0
 13 31  1  0
 13 32  1  0
 16 33  1  0
 17 34  1  0
 17 35  1  0
 18 36  1  0
 18 37  1  0
 18 38  1  0
M  END
