
     RDKit          3D

 38 37  0  0  0  0  0  0  0  0999 V2000
    4.5558   -2.0637    0.1660 N   0  0  0  0  0  0  0  0  0  0  0  0
    4.1096   -0.6542    0.0231 C   0  0  0  0  0  0  0  0  0  0  0  0
    2.6205   -0.6508   -0.4044 C   0  0  0  0  0  0  0  0  0  0  0  0
    2.0711   -1.6450   -0.8770 O   0  0  0  0  0  0  0  0  0  0  0  0
    1.9637    0.5412   -0.2066 N   0  0  0  0  0  0  0  0  0  0  0  0
    0.5811    0.7386   -0.6017 C   0  0  0  0  0  0  0  0  0  0  0  0
   -0.3937    0.1025    0.3792 C   0  0  0  0  0  0  0  0  0  0  0  0
   -1.8159    0.3641   -0.0417 C   0  0  0  0  0  0  0  0  0  0  0  0
   -2.1508    1.1167   -0.9439 O   0  0  0  0  0  0  0  0  0  0  0  0
   -2.6563   -0.3485    0.7568 O   0  0  0  0  0  0  0  0  0  0  0  0
   -4.0942   -0.2835    0.5711 C   0  0  0  0  0  0  0  0  0  0  0  0
   -4.6693   -1.2192    1.6452 C   0  0  0  0  0  0  0  0  0  0  0  0
   -4.6236    1.1328    0.8208 C   0  0  0  0  0  0  0  0  0  0  0  0
   -4.5010   -0.8126   -0.8085 C   0  0  0  0  0  0  0  0  0  0  0  0
    4.9721    0.0492   -1.0253 C   0  0  0  0  0  0  0  0  0  0  0  0
    4.9108    1.5425   -0.8698 C   0  0  0  0  0  0  0  0  0  0  0  0
    4.1759    2.1742   -0.1270 O   0  0  0  0  0  0  0  0  0  0  0  0
    5.7730    2.1750   -1.6876 O   0  0  0  0  0  0  0  0  0  0  0  0
    3.9541   -2.5111    0.8619 H   0  0  0  0  0  0  0  0  0  0  0  0
    4.3033   -2.5514   -0.7005 H   0  0  0  0  0  0  0  0  0  0  0  0
    4.1952   -0.1772    1.0061 H   0  0  0  0  0  0  0  0  0  0  0  0
    2.4984    1.3521    0.1076 H   0  0  0  0  0  0  0  0  0  0  0  0
    0.4199    1.8205   -0.6640 H   0  0  0  0  0  0  0  0  0  0  0  0
    0.4439    0.3227   -1.6068 H   0  0  0  0  0  0  0  0  0  0  0  0
   -0.2449    0.5174    1.3823 H   0  0  0  0  0  0  0  0  0  0  0  0
   -0.2349   -0.9806    0.4218 H   0  0  0  0  0  0  0  0  0  0  0  0
   -4.3689   -0.8927    2.6478 H   0  0  0  0  0  0  0  0  0  0  0  0
   -4.2818   -2.2375    1.5232 H   0  0  0  0  0  0  0  0  0  0  0  0
   -5.7630   -1.2585    1.6076 H   0  0  0  0  0  0  0  0  0  0  0  0
   -4.2476    1.5264    1.7719 H   0  0  0  0  0  0  0  0  0  0  0  0
   -4.3028    1.8324    0.0431 H   0  0  0  0  0  0  0  0  0  0  0  0
   -5.7185    1.1503    0.8449 H   0  0  0  0  0  0  0  0  0  0  0  0
   -5.5883   -0.9170   -0.8904 H   0  0  0  0  0  0  0  0  0  0  0  0
   -4.0416   -1.7886   -1.0015 H   0  0  0  0  0  0  0  0  0  0  0  0
   -4.1747   -0.1479   -1.6139 H   0  0  0  0  0  0  0  0  0  0  0  0
    4.6518   -0.2091   -2.0410 H   0  0  0  0  0  0  0  0  0  0  0  0
    6.0229   -0.2399   -0.8986 H   0  0  0  0  0  0  0  0  0  0  0  0
    5.6484    3.1305   -1.5084 H   0  0  0  0  0  0  0  0  0  0  0  0
  1  2  1  0
  2  3  1  0
  3  4  2  0
  3  5  1  0
  5  6  1  0
  6  7  1  0
  7  8  1  0
  8  9  2  0
  8 10  1  0
 10 11  1  0
 11 12  1  0
 11 13  1  0
 11 14  1  0
  2 15  1  0
 15 16  1  0
 16 17  2  0
 16 18  1  0
  1 19  1  0
  1 20  1  0
  2 21  1  0
  5 22  1  0
  6 23  1  0
  6 24  1  0
  7 25  1  0
  7 26  1  0
 12 27  1  0
 12 28  1  0
 12 29  1  0
 13 30  1  0
 13 31  1  0
 13 32  1  0
 14 33  1  0
 14 34  1  0
 14 35  1  0
 15 36  1  0
 15 37  1  0
 18 38  1  0
M  END
