
     RDKit          3D

 41 40  0  0  0  0  0  0  0  0999 V2000
    3.0607    3.0246    0.2251 C   0  0  0  0  0  0  0  0  0  0  0  0
    3.7151    1.6914    0.5645 C   0  0  0  0  0  0  0  0  0  0  0  0
    2.6820    0.5761    0.7799 C   0  0  0  0  0  0  0  0  0  0  0  0
    1.9810    0.3938   -0.4714 O   0  0  0  0  0  0  0  0  0  0  0  0
    0.7000   -0.0584   -0.3995 C   0  0  0  0  0  0  0  0  0  0  0  0
    0.0976   -0.3105    0.6389 O   0  0  0  0  0  0  0  0  0  0  0  0
    0.1144   -0.1964   -1.7858 C   0  0  0  0  0  0  0  0  0  0  0  0
   -0.5810   -1.5427   -1.9550 C   0  0  0  0  0  0  0  0  0  0  0  0
   -1.8648   -1.6017   -1.2869 N   0  0  0  0  0  0  0  0  0  0  0  0
   -3.0042   -1.0519   -1.8386 C   0  0  0  0  0  0  0  0  0  0  0  0
   -3.0569   -0.6214   -2.9878 O   0  0  0  0  0  0  0  0  0  0  0  0
   -4.2116   -0.9912   -0.8723 C   0  0  0  0  0  0  0  0  0  0  0  0
   -4.2504    0.3586   -0.1551 C   0  0  0  0  0  0  0  0  0  0  0  0
   -2.9592    0.6732    0.5455 C   0  0  0  0  0  0  0  0  0  0  0  0
   -2.4019    1.7588    0.5490 O   0  0  0  0  0  0  0  0  0  0  0  0
   -2.4355   -0.3847    1.1982 O   0  0  0  0  0  0  0  0  0  0  0  0
   -5.4618   -1.2115   -1.6366 N   0  0  0  0  0  0  0  0  0  0  0  0
    3.3351   -0.7642    1.1571 C   0  0  0  0  0  0  0  0  0  0  0  0
    4.0450   -0.7433    2.5027 C   0  0  0  0  0  0  0  0  0  0  0  0
    2.3752    3.3372    1.0202 H   0  0  0  0  0  0  0  0  0  0  0  0
    2.4983    2.9688   -0.7122 H   0  0  0  0  0  0  0  0  0  0  0  0
    3.8247    3.8000    0.1107 H   0  0  0  0  0  0  0  0  0  0  0  0
    4.3243    1.8302    1.4640 H   0  0  0  0  0  0  0  0  0  0  0  0
    4.3879    1.4228   -0.2586 H   0  0  0  0  0  0  0  0  0  0  0  0
    1.9830    0.8892    1.5654 H   0  0  0  0  0  0  0  0  0  0  0  0
    0.9276   -0.1338   -2.5182 H   0  0  0  0  0  0  0  0  0  0  0  0
   -0.5594    0.6478   -1.9595 H   0  0  0  0  0  0  0  0  0  0  0  0
   -0.7401   -1.7439   -3.0192 H   0  0  0  0  0  0  0  0  0  0  0  0
    0.0289   -2.3535   -1.5395 H   0  0  0  0  0  0  0  0  0  0  0  0
   -1.8616   -1.7542   -0.2796 H   0  0  0  0  0  0  0  0  0  0  0  0
   -4.1247   -1.8064   -0.1426 H   0  0  0  0  0  0  0  0  0  0  0  0
   -5.0571    0.3920    0.5840 H   0  0  0  0  0  0  0  0  0  0  0  0
   -4.4280    1.1590   -0.8827 H   0  0  0  0  0  0  0  0  0  0  0  0
   -1.5104   -0.1075    1.4298 H   0  0  0  0  0  0  0  0  0  0  0  0
   -5.4607   -0.5555   -2.4265 H   0  0  0  0  0  0  0  0  0  0  0  0
   -5.4064   -2.1304   -2.0834 H   0  0  0  0  0  0  0  0  0  0  0  0
    2.5657   -1.5465    1.1787 H   0  0  0  0  0  0  0  0  0  0  0  0
    4.0392   -1.0710    0.3723 H   0  0  0  0  0  0  0  0  0  0  0  0
    4.9222   -0.0902    2.4847 H   0  0  0  0  0  0  0  0  0  0  0  0
    3.3743   -0.4033    3.2972 H   0  0  0  0  0  0  0  0  0  0  0  0
    4.3935   -1.7493    2.7625 H   0  0  0  0  0  0  0  0  0  0  0  0
  1  2  1  0
  2  3  1  0
  3  4  1  0
  4  5  1  0
  5  6  2  0
  5  7  1  0
  7  8  1  0
  8  9  1  0
  9 10  1  0
 10 11  2  0
 10 12  1  0
 12 13  1  0
 13 14  1  0
 14 15  2  0
 14 16  1  0
 12 17  1  0
  3 18  1  0
 18 19  1  0
  1 20  1  0
  1 21  1  0
  1 22  1  0
  2 23  1  0
  2 24  1  0
  3 25  1  0
  7 26  1  0
  7 27  1  0
  8 28  1  0
  8 29  1  0
  9 30  1  0
 12 31  1  0
 13 32  1  0
 13 33  1  0
 16 34  1  0
 17 35  1  0
 17 36  1  0
 18 37  1  0
 18 38  1  0
 19 39  1  0
 19 40  1  0
 19 41  1  0
M  END
