
     RDKit          3D

 41 40  0  0  0  0  0  0  0  0999 V2000
   -5.9242    0.4644   -2.2608 C   0  0  0  0  0  0  0  0  0  0  0  0
   -5.2185    1.0925   -1.0684 C   0  0  0  0  0  0  0  0  0  0  0  0
   -3.7048    0.8986   -1.1515 C   0  0  0  0  0  0  0  0  0  0  0  0
   -2.9527    1.4199    0.0820 C   0  0  0  0  0  0  0  0  0  0  0  0
   -1.5480    1.1211   -0.0701 O   0  0  0  0  0  0  0  0  0  0  0  0
   -1.1442   -0.1134    0.3439 C   0  0  0  0  0  0  0  0  0  0  0  0
   -1.8756   -0.9778    0.8047 O   0  0  0  0  0  0  0  0  0  0  0  0
    0.3365   -0.2581    0.1146 C   0  0  0  0  0  0  0  0  0  0  0  0
    0.8531   -1.5473    0.7370 C   0  0  0  0  0  0  0  0  0  0  0  0
    2.2717   -1.7368    0.4968 N   0  0  0  0  0  0  0  0  0  0  0  0
    3.2333   -1.0690    1.2183 C   0  0  0  0  0  0  0  0  0  0  0  0
    2.9637   -0.2858    2.1278 O   0  0  0  0  0  0  0  0  0  0  0  0
    4.6915   -1.3713    0.7942 C   0  0  0  0  0  0  0  0  0  0  0  0
    5.0711   -0.5466   -0.4359 C   0  0  0  0  0  0  0  0  0  0  0  0
    4.5368   -1.1669   -1.6960 C   0  0  0  0  0  0  0  0  0  0  0  0
    3.7569   -2.1022   -1.7823 O   0  0  0  0  0  0  0  0  0  0  0  0
    4.9975   -0.5504   -2.8007 O   0  0  0  0  0  0  0  0  0  0  0  0
    5.5918   -1.0222    1.9221 N   0  0  0  0  0  0  0  0  0  0  0  0
   -3.0559    2.9343    0.2352 C   0  0  0  0  0  0  0  0  0  0  0  0
   -5.7357   -0.6130   -2.3059 H   0  0  0  0  0  0  0  0  0  0  0  0
   -5.5830    0.9131   -3.1992 H   0  0  0  0  0  0  0  0  0  0  0  0
   -7.0053    0.6167   -2.1844 H   0  0  0  0  0  0  0  0  0  0  0  0
   -5.6015    0.6409   -0.1461 H   0  0  0  0  0  0  0  0  0  0  0  0
   -5.4657    2.1589   -1.0383 H   0  0  0  0  0  0  0  0  0  0  0  0
   -3.4841   -0.1685   -1.2814 H   0  0  0  0  0  0  0  0  0  0  0  0
   -3.3127    1.3865   -2.0535 H   0  0  0  0  0  0  0  0  0  0  0  0
   -3.3396    0.9545    0.9972 H   0  0  0  0  0  0  0  0  0  0  0  0
    0.8460    0.6048    0.5577 H   0  0  0  0  0  0  0  0  0  0  0  0
    0.5239   -0.2577   -0.9649 H   0  0  0  0  0  0  0  0  0  0  0  0
    0.3401   -2.4187    0.3154 H   0  0  0  0  0  0  0  0  0  0  0  0
    0.6786   -1.5476    1.8195 H   0  0  0  0  0  0  0  0  0  0  0  0
    2.5570   -2.2589   -0.3328 H   0  0  0  0  0  0  0  0  0  0  0  0
    4.7921   -2.4466    0.6075 H   0  0  0  0  0  0  0  0  0  0  0  0
    4.6867    0.4771   -0.3623 H   0  0  0  0  0  0  0  0  0  0  0  0
    6.1629   -0.5108   -0.5370 H   0  0  0  0  0  0  0  0  0  0  0  0
    4.5957   -1.0311   -3.5545 H   0  0  0  0  0  0  0  0  0  0  0  0
    5.3151   -1.5887    2.7279 H   0  0  0  0  0  0  0  0  0  0  0  0
    5.3514   -0.0699    2.2189 H   0  0  0  0  0  0  0  0  0  0  0  0
   -4.0810    3.2546    0.4402 H   0  0  0  0  0  0  0  0  0  0  0  0
   -2.7002    3.4452   -0.6663 H   0  0  0  0  0  0  0  0  0  0  0  0
   -2.4207    3.2761    1.0601 H   0  0  0  0  0  0  0  0  0  0  0  0
  1  2  1  0
  2  3  1  0
  3  4  1  0
  4  5  1  0
  5  6  1  0
  6  7  2  0
  6  8  1  0
  8  9  1  0
  9 10  1  0
 10 11  1  0
 11 12  2  0
 11 13  1  0
 13 14  1  0
 14 15  1  0
 15 16  2  0
 15 17  1  0
 13 18  1  0
  4 19  1  0
  1 20  1  0
  1 21  1  0
  1 22  1  0
  2 23  1  0
  2 24  1  0
  3 25  1  0
  3 26  1  0
  4 27  1  0
  8 28  1  0
  8 29  1  0
  9 30  1  0
  9 31  1  0
 10 32  1  0
 13 33  1  0
 14 34  1  0
 14 35  1  0
 17 36  1  0
 18 37  1  0
 18 38  1  0
 19 39  1  0
 19 40  1  0
 19 41  1  0
M  END
