
     RDKit          3D

 26 26  0  0  0  0  0  0  0  0999 V2000
    4.4149    0.3791   -0.3701 C   0  0  0  0  0  0  0  0  0  0  0  0
    3.2276   -0.4626    0.0618 C   0  0  0  0  0  0  0  0  0  0  0  0
    1.9081    0.2817   -0.1177 C   0  0  0  0  0  0  0  0  0  0  0  0
    0.8573   -0.5847    0.3135 O   0  0  0  0  0  0  0  0  0  0  0  0
   -0.4313   -0.1544    0.1748 C   0  0  0  0  0  0  0  0  0  0  0  0
   -0.8031    1.1283   -0.2406 C   0  0  0  0  0  0  0  0  0  0  0  0
   -2.1569    1.4875   -0.3249 C   0  0  0  0  0  0  0  0  0  0  0  0
   -3.1545    0.5606    0.0122 C   0  0  0  0  0  0  0  0  0  0  0  0
   -2.8125   -0.7267    0.4308 C   0  0  0  0  0  0  0  0  0  0  0  0
   -1.4533   -1.0592    0.4990 C   0  0  0  0  0  0  0  0  0  0  0  0
   -1.1137   -2.4011    0.9257 N   0  0  0  0  0  4  0  0  0  0  0  0
   -1.3734   -2.6925    2.1009 O   0  0  0  0  0  1  0  0  0  0  0  0
   -0.6491   -3.1670    0.0715 O   0  0  0  0  0  0  0  0  0  0  0  0
   -4.5685    0.9474   -0.0773 N   0  0  0  0  0  4  0  0  0  0  0  0
   -5.4158    0.0839    0.1862 O   0  0  0  0  0  1  0  0  0  0  0  0
   -4.8256    2.1116   -0.4121 O   0  0  0  0  0  0  0  0  0  0  0  0
    4.4784    1.2993    0.2194 H   0  0  0  0  0  0  0  0  0  0  0  0
    4.3378    0.6528   -1.4272 H   0  0  0  0  0  0  0  0  0  0  0  0
    5.3462   -0.1786   -0.2306 H   0  0  0  0  0  0  0  0  0  0  0  0
    3.3429   -0.7583    1.1115 H   0  0  0  0  0  0  0  0  0  0  0  0
    3.2040   -1.3960   -0.5134 H   0  0  0  0  0  0  0  0  0  0  0  0
    1.7743    0.5399   -1.1751 H   0  0  0  0  0  0  0  0  0  0  0  0
    1.9154    1.1919    0.4934 H   0  0  0  0  0  0  0  0  0  0  0  0
   -0.0647    1.8819   -0.5013 H   0  0  0  0  0  0  0  0  0  0  0  0
   -2.4134    2.4951   -0.6514 H   0  0  0  0  0  0  0  0  0  0  0  0
   -3.5710   -1.4600    0.6985 H   0  0  0  0  0  0  0  0  0  0  0  0
  1  2  1  0
  2  3  1  0
  3  4  1  0
  4  5  1  0
  5  6  2  0
  6  7  1  0
  7  8  2  0
  8  9  1  0
  9 10  2  0
 10 11  1  0
 11 12  1  0
 11 13  2  0
  8 14  1  0
 14 15  1  0
 14 16  2  0
 10  5  1  0
  1 17  1  0
  1 18  1  0
  1 19  1  0
  2 20  1  0
  2 21  1  0
  3 22  1  0
  3 23  1  0
  6 24  1  0
  7 25  1  0
  9 26  1  0
M  CHG  4  11   1  12  -1  14   1  15  -1
M  END
