
     RDKit          3D

 39 39  0  0  0  0  0  0  0  0999 V2000
    1.6786    0.5567    1.9495 O   0  0  0  0  0  0  0  0  0  0  0  0
    1.5370    0.1381    0.8093 C   0  0  0  0  0  0  0  0  0  0  0  0
    2.5492   -0.2572   -0.0137 O   0  0  0  0  0  0  0  0  0  0  0  0
    3.8744   -0.1364    0.5294 C   0  0  0  0  0  0  0  0  0  0  0  0
    4.2216   -1.3484    1.3870 C   0  0  0  0  0  0  0  0  0  0  0  0
    4.5159   -2.4526    0.3757 C   0  0  0  0  0  0  0  0  0  0  0  0
    4.9781   -1.7461   -0.8979 C   0  0  0  0  0  0  0  0  0  0  0  0
    4.8732   -0.2478   -0.6172 C   0  0  0  0  0  0  0  0  0  0  0  0
    0.2179   -0.0501    0.1095 C   0  0  0  0  0  0  0  0  0  0  0  0
   -0.9117    0.5641    0.9243 C   0  0  0  0  0  0  0  0  0  0  0  0
   -2.2080    0.3667    0.3022 N   0  0  0  0  0  0  0  0  0  0  0  0
   -2.6289    1.1182   -0.7702 C   0  0  0  0  0  0  0  0  0  0  0  0
   -1.9191    1.9648   -1.3117 O   0  0  0  0  0  0  0  0  0  0  0  0
   -4.0671    0.8118   -1.2579 C   0  0  0  0  0  0  0  0  0  0  0  0
   -5.0978    1.4669   -0.3381 C   0  0  0  0  0  0  0  0  0  0  0  0
   -5.3317    0.6398    0.8946 C   0  0  0  0  0  0  0  0  0  0  0  0
   -4.6895   -0.3325    1.2593 O   0  0  0  0  0  0  0  0  0  0  0  0
   -6.3592    1.1030    1.6308 O   0  0  0  0  0  0  0  0  0  0  0  0
   -4.2214    1.3465   -2.6349 N   0  0  0  0  0  0  0  0  0  0  0  0
    3.9888    0.8157    1.0594 H   0  0  0  0  0  0  0  0  0  0  0  0
    3.4185   -1.6453    2.0677 H   0  0  0  0  0  0  0  0  0  0  0  0
    5.1215   -1.1439    1.9787 H   0  0  0  0  0  0  0  0  0  0  0  0
    3.6077   -3.0312    0.1693 H   0  0  0  0  0  0  0  0  0  0  0  0
    5.2701   -3.1504    0.7527 H   0  0  0  0  0  0  0  0  0  0  0  0
    4.3300   -2.0266   -1.7362 H   0  0  0  0  0  0  0  0  0  0  0  0
    6.0021   -2.0248   -1.1680 H   0  0  0  0  0  0  0  0  0  0  0  0
    5.8519    0.1323   -0.3008 H   0  0  0  0  0  0  0  0  0  0  0  0
    4.5587    0.3003   -1.5109 H   0  0  0  0  0  0  0  0  0  0  0  0
    0.2741    0.4229   -0.8770 H   0  0  0  0  0  0  0  0  0  0  0  0
    0.0459   -1.1234   -0.0274 H   0  0  0  0  0  0  0  0  0  0  0  0
   -0.9648    0.1094    1.9199 H   0  0  0  0  0  0  0  0  0  0  0  0
   -0.7505    1.6404    1.0575 H   0  0  0  0  0  0  0  0  0  0  0  0
   -2.8786   -0.2483    0.7649 H   0  0  0  0  0  0  0  0  0  0  0  0
   -4.1986   -0.2753   -1.3067 H   0  0  0  0  0  0  0  0  0  0  0  0
   -4.7771    2.4684   -0.0294 H   0  0  0  0  0  0  0  0  0  0  0  0
   -6.0621    1.5452   -0.8556 H   0  0  0  0  0  0  0  0  0  0  0  0
   -6.4182    0.5023    2.4030 H   0  0  0  0  0  0  0  0  0  0  0  0
   -3.9183    2.3262   -2.6160 H   0  0  0  0  0  0  0  0  0  0  0  0
   -3.5123    0.9008   -3.2222 H   0  0  0  0  0  0  0  0  0  0  0  0
  1  2  2  0
  2  3  1  0
  3  4  1  0
  4  5  1  0
  5  6  1  0
  6  7  1  0
  7  8  1  0
  2  9  1  0
  9 10  1  0
 10 11  1  0
 11 12  1  0
 12 13  2  0
 12 14  1  0
 14 15  1  0
 15 16  1  0
 16 17  2  0
 16 18  1  0
 14 19  1  0
  8  4  1  0
  4 20  1  0
  5 21  1  0
  5 22  1  0
  6 23  1  0
  6 24  1  0
  7 25  1  0
  7 26  1  0
  8 27  1  0
  8 28  1  0
  9 29  1  0
  9 30  1  0
 10 31  1  0
 10 32  1  0
 11 33  1  0
 14 34  1  0
 15 35  1  0
 15 36  1  0
 18 37  1  0
 19 38  1  0
 19 39  1  0
M  END
