
     RDKit          3D

 42 42  0  0  0  0  0  0  0  0999 V2000
    6.4645    0.4653    1.0695 O   0  0  0  0  0  0  0  0  0  0  0  0
    5.5627   -0.0796    0.2251 C   0  0  0  0  0  0  0  0  0  0  0  0
    4.7535   -0.9034    0.6199 O   0  0  0  0  0  0  0  0  0  0  0  0
    5.7401    0.4195   -1.1817 C   0  0  0  0  0  0  0  0  0  0  0  0
    4.5830   -0.0515   -2.0607 C   0  0  0  0  0  0  0  0  0  0  0  0
    3.2571    0.6230   -1.6424 C   0  0  0  0  0  0  0  0  0  0  0  0
    3.1994    1.6455   -0.9663 O   0  0  0  0  0  0  0  0  0  0  0  0
    2.1409   -0.0009   -2.1700 N   0  0  0  0  0  0  0  0  0  0  0  0
    0.7989    0.4627   -1.8659 C   0  0  0  0  0  0  0  0  0  0  0  0
    0.3382    0.0247   -0.4828 C   0  0  0  0  0  0  0  0  0  0  0  0
   -1.0865    0.4491   -0.2466 C   0  0  0  0  0  0  0  0  0  0  0  0
   -1.7237    1.2090   -0.9629 O   0  0  0  0  0  0  0  0  0  0  0  0
   -1.5619   -0.1540    0.8803 O   0  0  0  0  0  0  0  0  0  0  0  0
   -2.9284    0.1407    1.2278 C   0  0  0  0  0  0  0  0  0  0  0  0
   -3.1083   -0.1955    2.7116 C   0  0  0  0  0  0  0  0  0  0  0  0
   -4.5567   -0.0258    3.1610 C   0  0  0  0  0  0  0  0  0  0  0  0
   -5.5146   -0.8384    2.2912 C   0  0  0  0  0  0  0  0  0  0  0  0
   -5.3344   -0.5246    0.8073 C   0  0  0  0  0  0  0  0  0  0  0  0
   -3.8833   -0.6970    0.3684 C   0  0  0  0  0  0  0  0  0  0  0  0
    4.8525    0.2956   -3.4786 N   0  0  0  0  0  0  0  0  0  0  0  0
    6.2415    0.0860    1.9451 H   0  0  0  0  0  0  0  0  0  0  0  0
    5.8025    1.5153   -1.1594 H   0  0  0  0  0  0  0  0  0  0  0  0
    6.6906    0.0188   -1.5539 H   0  0  0  0  0  0  0  0  0  0  0  0
    4.4638   -1.1395   -1.9842 H   0  0  0  0  0  0  0  0  0  0  0  0
    2.2543   -0.9221   -2.5760 H   0  0  0  0  0  0  0  0  0  0  0  0
    0.7776    1.5549   -1.9502 H   0  0  0  0  0  0  0  0  0  0  0  0
    0.1415    0.0549   -2.6401 H   0  0  0  0  0  0  0  0  0  0  0  0
    0.9685    0.4651    0.2961 H   0  0  0  0  0  0  0  0  0  0  0  0
    0.3977   -1.0677   -0.4071 H   0  0  0  0  0  0  0  0  0  0  0  0
   -3.1257    1.2115    1.0860 H   0  0  0  0  0  0  0  0  0  0  0  0
   -2.4512    0.4388    3.3195 H   0  0  0  0  0  0  0  0  0  0  0  0
   -2.7793   -1.2266    2.8988 H   0  0  0  0  0  0  0  0  0  0  0  0
   -4.8303    1.0358    3.1118 H   0  0  0  0  0  0  0  0  0  0  0  0
   -4.6568   -0.3335    4.2091 H   0  0  0  0  0  0  0  0  0  0  0  0
   -5.3415   -1.9097    2.4605 H   0  0  0  0  0  0  0  0  0  0  0  0
   -6.5493   -0.6325    2.5887 H   0  0  0  0  0  0  0  0  0  0  0  0
   -5.9807   -1.1809    0.2131 H   0  0  0  0  0  0  0  0  0  0  0  0
   -5.6546    0.5060    0.6088 H   0  0  0  0  0  0  0  0  0  0  0  0
   -3.5983   -1.7561    0.4260 H   0  0  0  0  0  0  0  0  0  0  0  0
   -3.7840   -0.4212   -0.6883 H   0  0  0  0  0  0  0  0  0  0  0  0
    5.0149    1.3036   -3.5329 H   0  0  0  0  0  0  0  0  0  0  0  0
    4.0057    0.1349   -4.0263 H   0  0  0  0  0  0  0  0  0  0  0  0
  1  2  1  0
  2  3  2  0
  2  4  1  0
  4  5  1  0
  5  6  1  0
  6  7  2  0
  6  8  1  0
  8  9  1  0
  9 10  1  0
 10 11  1  0
 11 12  2  0
 11 13  1  0
 13 14  1  0
 14 15  1  0
 15 16  1  0
 16 17  1  0
 17 18  1  0
 18 19  1  0
  5 20  1  0
 19 14  1  0
  1 21  1  0
  4 22  1  0
  4 23  1  0
  5 24  1  0
  8 25  1  0
  9 26  1  0
  9 27  1  0
 10 28  1  0
 10 29  1  0
 14 30  1  0
 15 31  1  0
 15 32  1  0
 16 33  1  0
 16 34  1  0
 17 35  1  0
 17 36  1  0
 18 37  1  0
 18 38  1  0
 19 39  1  0
 19 40  1  0
 20 41  1  0
 20 42  1  0
M  END
