
     RDKit          3D

 38 37  0  0  0  0  0  0  0  0999 V2000
   -0.8005    1.1836    1.6651 C   0  0  0  0  0  0  0  0  0  0  0  0
   -0.7600    0.3429    0.3923 C   0  0  0  0  0  0  0  0  0  0  0  0
   -2.0205    0.5912   -0.4075 C   0  0  0  0  0  0  0  0  0  0  0  0
   -2.1136    1.3828   -1.3358 O   0  0  0  0  0  0  0  0  0  0  0  0
   -3.0399   -0.1709    0.0799 O   0  0  0  0  0  0  0  0  0  0  0  0
   -4.3133   -0.0261   -0.5759 C   0  0  0  0  0  0  0  0  0  0  0  0
   -5.0569    1.1666    0.0145 C   0  0  0  0  0  0  0  0  0  0  0  0
   -5.0893   -1.3161   -0.3403 C   0  0  0  0  0  0  0  0  0  0  0  0
    0.4544    0.6734   -0.4805 C   0  0  0  0  0  0  0  0  0  0  0  0
    1.7154    0.3196    0.1468 N   0  0  0  0  0  0  0  0  0  0  0  0
    2.1791   -0.9740    0.1881 C   0  0  0  0  0  0  0  0  0  0  0  0
    1.5492   -1.9225   -0.2779 O   0  0  0  0  0  0  0  0  0  0  0  0
    3.5548   -1.1533    0.8781 C   0  0  0  0  0  0  0  0  0  0  0  0
    4.6848   -0.6815   -0.0377 C   0  0  0  0  0  0  0  0  0  0  0  0
    4.8448    0.8116    0.0180 C   0  0  0  0  0  0  0  0  0  0  0  0
    4.1064    1.6094    0.5740 O   0  0  0  0  0  0  0  0  0  0  0  0
    5.9281    1.2328   -0.6612 O   0  0  0  0  0  0  0  0  0  0  0  0
    3.7410   -2.5933    1.1913 N   0  0  0  0  0  0  0  0  0  0  0  0
    0.0770    0.9965    2.2921 H   0  0  0  0  0  0  0  0  0  0  0  0
   -1.6911    0.9508    2.2591 H   0  0  0  0  0  0  0  0  0  0  0  0
   -0.8339    2.2540    1.4330 H   0  0  0  0  0  0  0  0  0  0  0  0
   -0.7301   -0.7210    0.6579 H   0  0  0  0  0  0  0  0  0  0  0  0
   -4.1763    0.1044   -1.6562 H   0  0  0  0  0  0  0  0  0  0  0  0
   -4.5024    2.0953   -0.1549 H   0  0  0  0  0  0  0  0  0  0  0  0
   -6.0508    1.2736   -0.4306 H   0  0  0  0  0  0  0  0  0  0  0  0
   -5.1667    1.0612    1.0995 H   0  0  0  0  0  0  0  0  0  0  0  0
   -5.2189   -1.5079    0.7307 H   0  0  0  0  0  0  0  0  0  0  0  0
   -4.5386   -2.1708   -0.7479 H   0  0  0  0  0  0  0  0  0  0  0  0
   -6.0756   -1.2795   -0.8128 H   0  0  0  0  0  0  0  0  0  0  0  0
    0.4998    1.7454   -0.7051 H   0  0  0  0  0  0  0  0  0  0  0  0
    0.3919    0.1406   -1.4373 H   0  0  0  0  0  0  0  0  0  0  0  0
    2.3016    1.0689    0.5168 H   0  0  0  0  0  0  0  0  0  0  0  0
    3.5450   -0.6056    1.8274 H   0  0  0  0  0  0  0  0  0  0  0  0
    5.6374   -1.1145    0.2921 H   0  0  0  0  0  0  0  0  0  0  0  0
    4.5017   -0.9744   -1.0777 H   0  0  0  0  0  0  0  0  0  0  0  0
    5.9336    2.2080   -0.5636 H   0  0  0  0  0  0  0  0  0  0  0  0
    2.9636   -2.8833    1.7901 H   0  0  0  0  0  0  0  0  0  0  0  0
    3.5688   -3.1176    0.3267 H   0  0  0  0  0  0  0  0  0  0  0  0
  1  2  1  0
  2  3  1  0
  3  4  2  0
  3  5  1  0
  5  6  1  0
  6  7  1  0
  6  8  1  0
  2  9  1  0
  9 10  1  0
 10 11  1  0
 11 12  2  0
 11 13  1  0
 13 14  1  0
 14 15  1  0
 15 16  2  0
 15 17  1  0
 13 18  1  0
  1 19  1  0
  1 20  1  0
  1 21  1  0
  2 22  1  0
  6 23  1  0
  7 24  1  0
  7 25  1  0
  7 26  1  0
  8 27  1  0
  8 28  1  0
  8 29  1  0
  9 30  1  0
  9 31  1  0
 10 32  1  0
 13 33  1  0
 14 34  1  0
 14 35  1  0
 17 36  1  0
 18 37  1  0
 18 38  1  0
M  END
