
     RDKit          3D

 41 40  0  0  0  0  0  0  0  0999 V2000
    0.4231   -1.6650    0.4576 C   0  0  0  0  0  0  0  0  0  0  0  0
   -0.1416   -0.4602   -0.2890 C   0  0  0  0  0  0  0  0  0  0  0  0
   -1.5818   -0.7382   -0.6633 C   0  0  0  0  0  0  0  0  0  0  0  0
   -1.9389   -1.2097   -1.7331 O   0  0  0  0  0  0  0  0  0  0  0  0
   -2.3970   -0.4150    0.3766 O   0  0  0  0  0  0  0  0  0  0  0  0
   -3.8346   -0.5854    0.2780 C   0  0  0  0  0  0  0  0  0  0  0  0
   -4.3791   -0.0947    1.6284 C   0  0  0  0  0  0  0  0  0  0  0  0
   -4.4241    0.2887   -0.8348 C   0  0  0  0  0  0  0  0  0  0  0  0
   -4.2075   -2.0624    0.1063 C   0  0  0  0  0  0  0  0  0  0  0  0
    0.6483   -0.1423   -1.5623 C   0  0  0  0  0  0  0  0  0  0  0  0
    2.0057    0.2972   -1.2921 N   0  0  0  0  0  0  0  0  0  0  0  0
    2.2912    1.5662   -0.8463 C   0  0  0  0  0  0  0  0  0  0  0  0
    1.4240    2.4176   -0.6559 O   0  0  0  0  0  0  0  0  0  0  0  0
    3.7927    1.8443   -0.5886 C   0  0  0  0  0  0  0  0  0  0  0  0
    4.2239    1.2479    0.7517 C   0  0  0  0  0  0  0  0  0  0  0  0
    4.5058   -0.2231    0.6286 C   0  0  0  0  0  0  0  0  0  0  0  0
    4.2651   -0.9404   -0.3297 O   0  0  0  0  0  0  0  0  0  0  0  0
    5.0593   -0.7300    1.7463 O   0  0  0  0  0  0  0  0  0  0  0  0
    4.0020    3.3146   -0.5670 N   0  0  0  0  0  0  0  0  0  0  0  0
    1.4462   -1.4764    0.7973 H   0  0  0  0  0  0  0  0  0  0  0  0
    0.4317   -2.5580   -0.1772 H   0  0  0  0  0  0  0  0  0  0  0  0
   -0.1840   -1.8975    1.3395 H   0  0  0  0  0  0  0  0  0  0  0  0
   -0.1237    0.4165    0.3704 H   0  0  0  0  0  0  0  0  0  0  0  0
   -5.4706   -0.1693    1.6783 H   0  0  0  0  0  0  0  0  0  0  0  0
   -3.9548   -0.6779    2.4538 H   0  0  0  0  0  0  0  0  0  0  0  0
   -4.0947    0.9485    1.8086 H   0  0  0  0  0  0  0  0  0  0  0  0
   -5.5192    0.2898   -0.8023 H   0  0  0  0  0  0  0  0  0  0  0  0
   -4.1272   -0.0593   -1.8289 H   0  0  0  0  0  0  0  0  0  0  0  0
   -4.0717    1.3224   -0.7449 H   0  0  0  0  0  0  0  0  0  0  0  0
   -5.2886   -2.2134    0.1958 H   0  0  0  0  0  0  0  0  0  0  0  0
   -3.7055   -2.6802    0.8595 H   0  0  0  0  0  0  0  0  0  0  0  0
   -3.9026   -2.4491   -0.8707 H   0  0  0  0  0  0  0  0  0  0  0  0
    0.7221   -1.0225   -2.2108 H   0  0  0  0  0  0  0  0  0  0  0  0
    0.1454    0.6474   -2.1339 H   0  0  0  0  0  0  0  0  0  0  0  0
    2.7560   -0.3940   -1.3261 H   0  0  0  0  0  0  0  0  0  0  0  0
    4.3768    1.4365   -1.4217 H   0  0  0  0  0  0  0  0  0  0  0  0
    5.1539    1.7227    1.0885 H   0  0  0  0  0  0  0  0  0  0  0  0
    3.4532    1.3912    1.5180 H   0  0  0  0  0  0  0  0  0  0  0  0
    5.2067   -1.6805    1.5571 H   0  0  0  0  0  0  0  0  0  0  0  0
    3.3082    3.7100    0.0770 H   0  0  0  0  0  0  0  0  0  0  0  0
    3.7056    3.6832   -1.4745 H   0  0  0  0  0  0  0  0  0  0  0  0
  1  2  1  0
  2  3  1  0
  3  4  2  0
  3  5  1  0
  5  6  1  0
  6  7  1  0
  6  8  1  0
  6  9  1  0
  2 10  1  0
 10 11  1  0
 11 12  1  0
 12 13  2  0
 12 14  1  0
 14 15  1  0
 15 16  1  0
 16 17  2  0
 16 18  1  0
 14 19  1  0
  1 20  1  0
  1 21  1  0
  1 22  1  0
  2 23  1  0
  7 24  1  0
  7 25  1  0
  7 26  1  0
  8 27  1  0
  8 28  1  0
  8 29  1  0
  9 30  1  0
  9 31  1  0
  9 32  1  0
 10 33  1  0
 10 34  1  0
 11 35  1  0
 14 36  1  0
 15 37  1  0
 15 38  1  0
 18 39  1  0
 19 40  1  0
 19 41  1  0
M  END
