
     RDKit          3D

 42 42  0  0  0  0  0  0  0  0999 V2000
    5.0470    2.0400   -0.7688 O   0  0  0  0  0  0  0  0  0  0  0  0
    4.6978    0.7754   -0.4669 C   0  0  0  0  0  0  0  0  0  0  0  0
    4.6338    0.4049    0.6943 O   0  0  0  0  0  0  0  0  0  0  0  0
    4.4094   -0.0422   -1.6932 C   0  0  0  0  0  0  0  0  0  0  0  0
    4.0801   -1.4900   -1.3304 C   0  0  0  0  0  0  0  0  0  0  0  0
    2.6157   -1.6015   -0.8400 C   0  0  0  0  0  0  0  0  0  0  0  0
    1.7076   -1.9960   -1.5711 O   0  0  0  0  0  0  0  0  0  0  0  0
    2.4115   -1.2186    0.4653 N   0  0  0  0  0  0  0  0  0  0  0  0
    1.0931   -1.2167    1.0736 C   0  0  0  0  0  0  0  0  0  0  0  0
    0.2562   -0.0012    0.6698 C   0  0  0  0  0  0  0  0  0  0  0  0
   -1.1457   -0.1873    1.2035 C   0  0  0  0  0  0  0  0  0  0  0  0
   -1.4094   -0.5609    2.3388 O   0  0  0  0  0  0  0  0  0  0  0  0
   -2.0614    0.1533    0.2542 O   0  0  0  0  0  0  0  0  0  0  0  0
   -3.4287    0.0485    0.6521 C   0  0  0  0  0  0  0  0  0  0  0  0
   -3.8911    1.2705    1.4396 C   0  0  0  0  0  0  0  0  0  0  0  0
   -5.3982    1.3450    1.2083 C   0  0  0  0  0  0  0  0  0  0  0  0
   -5.6878    0.4637   -0.0083 C   0  0  0  0  0  0  0  0  0  0  0  0
   -4.3260    0.0970   -0.5778 C   0  0  0  0  0  0  0  0  0  0  0  0
    0.8225    1.3064    1.2135 C   0  0  0  0  0  0  0  0  0  0  0  0
    4.2444   -2.3513   -2.5282 N   0  0  0  0  0  0  0  0  0  0  0  0
    5.2415    2.4691    0.0906 H   0  0  0  0  0  0  0  0  0  0  0  0
    3.5825    0.4243   -2.2396 H   0  0  0  0  0  0  0  0  0  0  0  0
    5.3116   -0.0085   -2.3165 H   0  0  0  0  0  0  0  0  0  0  0  0
    4.7462   -1.8746   -0.5497 H   0  0  0  0  0  0  0  0  0  0  0  0
    3.1869   -0.8061    0.9850 H   0  0  0  0  0  0  0  0  0  0  0  0
    0.5825   -2.1424    0.7813 H   0  0  0  0  0  0  0  0  0  0  0  0
    1.2424   -1.2557    2.1579 H   0  0  0  0  0  0  0  0  0  0  0  0
    0.2099    0.0602   -0.4244 H   0  0  0  0  0  0  0  0  0  0  0  0
   -3.6126   -0.8820    1.2056 H   0  0  0  0  0  0  0  0  0  0  0  0
   -3.6434    1.1945    2.5028 H   0  0  0  0  0  0  0  0  0  0  0  0
   -3.4025    2.1780    1.0654 H   0  0  0  0  0  0  0  0  0  0  0  0
   -5.9485    0.9778    2.0815 H   0  0  0  0  0  0  0  0  0  0  0  0
   -5.7123    2.3789    1.0342 H   0  0  0  0  0  0  0  0  0  0  0  0
   -6.3172    0.9737   -0.7460 H   0  0  0  0  0  0  0  0  0  0  0  0
   -6.2176   -0.4421    0.3101 H   0  0  0  0  0  0  0  0  0  0  0  0
   -3.9799    0.8624   -1.2833 H   0  0  0  0  0  0  0  0  0  0  0  0
   -4.3390   -0.8561   -1.1166 H   0  0  0  0  0  0  0  0  0  0  0  0
    0.1635    2.1467    0.9704 H   0  0  0  0  0  0  0  0  0  0  0  0
    0.9221    1.2731    2.3037 H   0  0  0  0  0  0  0  0  0  0  0  0
    1.8078    1.5192    0.7879 H   0  0  0  0  0  0  0  0  0  0  0  0
    4.0214   -3.3123   -2.2540 H   0  0  0  0  0  0  0  0  0  0  0  0
    3.4843   -2.1169   -3.1779 H   0  0  0  0  0  0  0  0  0  0  0  0
  1  2  1  0
  2  3  2  0
  2  4  1  0
  4  5  1  0
  5  6  1  0
  6  7  2  0
  6  8  1  0
  8  9  1  0
  9 10  1  0
 10 11  1  0
 11 12  2  0
 11 13  1  0
 13 14  1  0
 14 15  1  0
 15 16  1  0
 16 17  1  0
 17 18  1  0
 10 19  1  0
  5 20  1  0
 18 14  1  0
  1 21  1  0
  4 22  1  0
  4 23  1  0
  5 24  1  0
  8 25  1  0
  9 26  1  0
  9 27  1  0
 10 28  1  0
 14 29  1  0
 15 30  1  0
 15 31  1  0
 16 32  1  0
 16 33  1  0
 17 34  1  0
 17 35  1  0
 18 36  1  0
 18 37  1  0
 19 38  1  0
 19 39  1  0
 19 40  1  0
 20 41  1  0
 20 42  1  0
M  END
