
     RDKit          3D

 45 45  0  0  0  0  0  0  0  0999 V2000
    0.6010    1.5462    1.3090 C   0  0  0  0  0  0  0  0  0  0  0  0
    0.3618    0.4061    0.3229 C   0  0  0  0  0  0  0  0  0  0  0  0
   -0.9716   -0.2485    0.6241 C   0  0  0  0  0  0  0  0  0  0  0  0
   -1.1150   -1.3450    1.1463 O   0  0  0  0  0  0  0  0  0  0  0  0
   -1.9888    0.5637    0.2175 O   0  0  0  0  0  0  0  0  0  0  0  0
   -3.3236    0.0752    0.4463 C   0  0  0  0  0  0  0  0  0  0  0  0
   -4.2509    1.2918    0.5098 C   0  0  0  0  0  0  0  0  0  0  0  0
   -5.7146    0.8814    0.6282 C   0  0  0  0  0  0  0  0  0  0  0  0
   -6.1237   -0.0650   -0.4971 C   0  0  0  0  0  0  0  0  0  0  0  0
   -5.1994   -1.2769   -0.5790 C   0  0  0  0  0  0  0  0  0  0  0  0
   -3.7362   -0.8615   -0.6931 C   0  0  0  0  0  0  0  0  0  0  0  0
    1.4645   -0.6563    0.3709 C   0  0  0  0  0  0  0  0  0  0  0  0
    2.7225   -0.1806   -0.1798 N   0  0  0  0  0  0  0  0  0  0  0  0
    3.7540    0.2826    0.6028 C   0  0  0  0  0  0  0  0  0  0  0  0
    3.6860    0.3565    1.8287 O   0  0  0  0  0  0  0  0  0  0  0  0
    5.0175    0.7216   -0.1800 C   0  0  0  0  0  0  0  0  0  0  0  0
    5.8095   -0.4966   -0.6561 C   0  0  0  0  0  0  0  0  0  0  0  0
    5.2233   -1.0705   -1.9152 C   0  0  0  0  0  0  0  0  0  0  0  0
    4.1684   -0.7567   -2.4442 O   0  0  0  0  0  0  0  0  0  0  0  0
    5.9938   -2.0430   -2.4378 O   0  0  0  0  0  0  0  0  0  0  0  0
    5.8675    1.5435    0.7191 N   0  0  0  0  0  0  0  0  0  0  0  0
   -0.2288    2.2613    1.2949 H   0  0  0  0  0  0  0  0  0  0  0  0
    1.5129    2.0987    1.0636 H   0  0  0  0  0  0  0  0  0  0  0  0
    0.6901    1.1709    2.3345 H   0  0  0  0  0  0  0  0  0  0  0  0
    0.3110    0.8081   -0.6974 H   0  0  0  0  0  0  0  0  0  0  0  0
   -3.3747   -0.4494    1.4096 H   0  0  0  0  0  0  0  0  0  0  0  0
   -3.9689    1.9261    1.3591 H   0  0  0  0  0  0  0  0  0  0  0  0
   -4.1089    1.9136   -0.3840 H   0  0  0  0  0  0  0  0  0  0  0  0
   -5.8790    0.3910    1.5955 H   0  0  0  0  0  0  0  0  0  0  0  0
   -6.3510    1.7732    0.6098 H   0  0  0  0  0  0  0  0  0  0  0  0
   -6.1015    0.4744   -1.4521 H   0  0  0  0  0  0  0  0  0  0  0  0
   -7.1561   -0.3980   -0.3423 H   0  0  0  0  0  0  0  0  0  0  0  0
   -5.3329   -1.8988    0.3147 H   0  0  0  0  0  0  0  0  0  0  0  0
   -5.4763   -1.8935   -1.4415 H   0  0  0  0  0  0  0  0  0  0  0  0
   -3.5623   -0.3671   -1.6578 H   0  0  0  0  0  0  0  0  0  0  0  0
   -3.0987   -1.7532   -0.6994 H   0  0  0  0  0  0  0  0  0  0  0  0
    1.6236   -1.0114    1.3960 H   0  0  0  0  0  0  0  0  0  0  0  0
    1.1820   -1.5263   -0.2337 H   0  0  0  0  0  0  0  0  0  0  0  0
    2.8643   -0.2503   -1.1883 H   0  0  0  0  0  0  0  0  0  0  0  0
    4.7081    1.3580   -1.0171 H   0  0  0  0  0  0  0  0  0  0  0  0
    6.8398   -0.2024   -0.8920 H   0  0  0  0  0  0  0  0  0  0  0  0
    5.8298   -1.2813    0.1088 H   0  0  0  0  0  0  0  0  0  0  0  0
    5.5224   -2.3456   -3.2419 H   0  0  0  0  0  0  0  0  0  0  0  0
    5.3056    2.3382    1.0351 H   0  0  0  0  0  0  0  0  0  0  0  0
    6.0038    1.0065    1.5825 H   0  0  0  0  0  0  0  0  0  0  0  0
  1  2  1  0
  2  3  1  0
  3  4  2  0
  3  5  1  0
  5  6  1  0
  6  7  1  0
  7  8  1  0
  8  9  1  0
  9 10  1  0
 10 11  1  0
  2 12  1  0
 12 13  1  0
 13 14  1  0
 14 15  2  0
 14 16  1  0
 16 17  1  0
 17 18  1  0
 18 19  2  0
 18 20  1  0
 16 21  1  0
 11  6  1  0
  1 22  1  0
  1 23  1  0
  1 24  1  0
  2 25  1  0
  6 26  1  0
  7 27  1  0
  7 28  1  0
  8 29  1  0
  8 30  1  0
  9 31  1  0
  9 32  1  0
 10 33  1  0
 10 34  1  0
 11 35  1  0
 11 36  1  0
 12 37  1  0
 12 38  1  0
 13 39  1  0
 16 40  1  0
 17 41  1  0
 17 42  1  0
 20 43  1  0
 21 44  1  0
 21 45  1  0
M  END
