
     RDKit          3D

 32 31  0  0  0  0  0  0  0  0999 V2000
    1.8444   -0.0609    2.0153 C   0  0  0  0  0  0  0  0  0  0  0  0
    1.3121    0.7028    0.8043 C   0  0  0  0  0  0  0  0  0  0  0  0
   -0.1416    0.8067    0.8700 N   0  0  0  0  0  0  0  0  0  0  0  0
   -0.8350    1.7930    0.1945 C   0  0  0  0  0  0  0  0  0  0  0  0
   -0.2758    2.6911   -0.4332 O   0  0  0  0  0  0  0  0  0  0  0  0
   -2.3811    1.6822    0.2768 C   0  0  0  0  0  0  0  0  0  0  0  0
   -2.9067    0.7342   -0.8019 C   0  0  0  0  0  0  0  0  0  0  0  0
   -2.3384   -0.6330   -0.5646 C   0  0  0  0  0  0  0  0  0  0  0  0
   -2.1961   -1.1587    0.5315 O   0  0  0  0  0  0  0  0  0  0  0  0
   -1.8695   -1.2032   -1.6894 O   0  0  0  0  0  0  0  0  0  0  0  0
   -2.9763    3.0314    0.0999 N   0  0  0  0  0  0  0  0  0  0  0  0
    1.8096    0.1273   -0.5274 C   0  0  0  0  0  0  0  0  0  0  0  0
    1.5789   -1.3586   -0.6667 C   0  0  0  0  0  0  0  0  0  0  0  0
    0.4756   -1.8826   -0.7985 O   0  0  0  0  0  0  0  0  0  0  0  0
    2.7708   -2.0327   -0.6232 O   0  0  0  0  0  0  0  0  0  0  0  0
    2.6555   -3.4522   -0.7574 C   0  0  0  0  0  0  0  0  0  0  0  0
    2.9396   -0.0944    2.0027 H   0  0  0  0  0  0  0  0  0  0  0  0
    1.4672   -1.0897    2.0501 H   0  0  0  0  0  0  0  0  0  0  0  0
    1.5309    0.4271    2.9450 H   0  0  0  0  0  0  0  0  0  0  0  0
    1.6949    1.7299    0.8695 H   0  0  0  0  0  0  0  0  0  0  0  0
   -0.6663   -0.0066    1.1997 H   0  0  0  0  0  0  0  0  0  0  0  0
   -2.6537    1.3299    1.2777 H   0  0  0  0  0  0  0  0  0  0  0  0
   -2.5962    1.0816   -1.7963 H   0  0  0  0  0  0  0  0  0  0  0  0
   -3.9992    0.6606   -0.7834 H   0  0  0  0  0  0  0  0  0  0  0  0
   -1.2258   -1.8883   -1.3725 H   0  0  0  0  0  0  0  0  0  0  0  0
   -2.5903    3.6366    0.8283 H   0  0  0  0  0  0  0  0  0  0  0  0
   -2.5829    3.4222   -0.7636 H   0  0  0  0  0  0  0  0  0  0  0  0
    1.3335    0.6161   -1.3861 H   0  0  0  0  0  0  0  0  0  0  0  0
    2.8856    0.3226   -0.6259 H   0  0  0  0  0  0  0  0  0  0  0  0
    2.1419   -3.7111   -1.6957 H   0  0  0  0  0  0  0  0  0  0  0  0
    3.6679   -3.8810   -0.7895 H   0  0  0  0  0  0  0  0  0  0  0  0
    2.1264   -3.8693    0.1100 H   0  0  0  0  0  0  0  0  0  0  0  0
  1  2  1  0
  2  3  1  0
  3  4  1  0
  4  5  2  0
  4  6  1  0
  6  7  1  0
  7  8  1  0
  8  9  2  0
  8 10  1  0
  6 11  1  0
  2 12  1  0
 12 13  1  0
 13 14  2  0
 13 15  1  0
 15 16  1  0
  1 17  1  0
  1 18  1  0
  1 19  1  0
  2 20  1  0
  3 21  1  0
  6 22  1  0
  7 23  1  0
  7 24  1  0
 10 25  1  0
 11 26  1  0
 11 27  1  0
 12 28  1  0
 12 29  1  0
 16 30  1  0
 16 31  1  0
 16 32  1  0
M  END
