
     RDKit          3D

 29 28  0  0  0  0  0  0  0  0999 V2000
   -5.4738   -1.1545    0.0219 C   0  0  0  0  0  0  0  0  0  0  0  0
   -4.0860   -1.3667   -0.2404 O   0  0  0  0  0  0  0  0  0  0  0  0
   -3.2577   -0.5102    0.4222 C   0  0  0  0  0  0  0  0  0  0  0  0
   -3.6240    0.3624    1.1969 O   0  0  0  0  0  0  0  0  0  0  0  0
   -1.8266   -0.8219    0.0747 C   0  0  0  0  0  0  0  0  0  0  0  0
   -0.8914    0.2185    0.6748 C   0  0  0  0  0  0  0  0  0  0  0  0
    0.5030   -0.0717    0.3961 N   0  0  0  0  0  0  0  0  0  0  0  0
    1.0768    0.1895   -0.8262 C   0  0  0  0  0  0  0  0  0  0  0  0
    0.4401    0.6333   -1.7808 O   0  0  0  0  0  0  0  0  0  0  0  0
    2.5905   -0.1272   -0.9178 C   0  0  0  0  0  0  0  0  0  0  0  0
    3.4123    0.9735   -0.2464 C   0  0  0  0  0  0  0  0  0  0  0  0
    3.4462    0.7963    1.2454 C   0  0  0  0  0  0  0  0  0  0  0  0
    2.8017   -0.0039    1.9050 O   0  0  0  0  0  0  0  0  0  0  0  0
    4.2834    1.6656    1.8419 O   0  0  0  0  0  0  0  0  0  0  0  0
    2.9666   -0.2206   -2.3516 N   0  0  0  0  0  0  0  0  0  0  0  0
   -5.7733   -0.1482   -0.2875 H   0  0  0  0  0  0  0  0  0  0  0  0
   -5.6919   -1.3161    1.0822 H   0  0  0  0  0  0  0  0  0  0  0  0
   -6.0442   -1.8808   -0.5636 H   0  0  0  0  0  0  0  0  0  0  0  0
   -1.5821   -1.8172    0.4620 H   0  0  0  0  0  0  0  0  0  0  0  0
   -1.7270   -0.8370   -1.0161 H   0  0  0  0  0  0  0  0  0  0  0  0
   -1.1234    1.2168    0.2852 H   0  0  0  0  0  0  0  0  0  0  0  0
   -0.9971    0.2537    1.7648 H   0  0  0  0  0  0  0  0  0  0  0  0
    1.1039   -0.3537    1.1719 H   0  0  0  0  0  0  0  0  0  0  0  0
    2.7740   -1.1068   -0.4616 H   0  0  0  0  0  0  0  0  0  0  0  0
    4.4515    0.9280   -0.5949 H   0  0  0  0  0  0  0  0  0  0  0  0
    3.0047    1.9659   -0.4704 H   0  0  0  0  0  0  0  0  0  0  0  0
    4.2255    1.4672    2.8000 H   0  0  0  0  0  0  0  0  0  0  0  0
    2.3933   -0.9539   -2.7762 H   0  0  0  0  0  0  0  0  0  0  0  0
    2.6247    0.6303   -2.8114 H   0  0  0  0  0  0  0  0  0  0  0  0
  1  2  1  0
  2  3  1  0
  3  4  2  0
  3  5  1  0
  5  6  1  0
  6  7  1  0
  7  8  1  0
  8  9  2  0
  8 10  1  0
 10 11  1  0
 11 12  1  0
 12 13  2  0
 12 14  1  0
 10 15  1  0
  1 16  1  0
  1 17  1  0
  1 18  1  0
  5 19  1  0
  5 20  1  0
  6 21  1  0
  6 22  1  0
  7 23  1  0
 10 24  1  0
 11 25  1  0
 11 26  1  0
 14 27  1  0
 15 28  1  0
 15 29  1  0
M  END
