
     RDKit          3D

 35 34  0  0  0  0  0  0  0  0999 V2000
   -3.6918    1.7468    2.9142 N   0  0  0  0  0  0  0  0  0  0  0  0
   -3.4380    0.9966    1.6582 C   0  0  0  0  0  0  0  0  0  0  0  0
   -1.9974    1.3072    1.1828 C   0  0  0  0  0  0  0  0  0  0  0  0
   -1.1284    1.7204    1.9493 O   0  0  0  0  0  0  0  0  0  0  0  0
   -1.7685    1.0777   -0.1538 N   0  0  0  0  0  0  0  0  0  0  0  0
   -0.4662    1.2794   -0.7616 C   0  0  0  0  0  0  0  0  0  0  0  0
    0.4850    0.1290   -0.4656 C   0  0  0  0  0  0  0  0  0  0  0  0
    1.8120    0.3490   -1.1415 C   0  0  0  0  0  0  0  0  0  0  0  0
    2.0471    1.2161   -1.9705 O   0  0  0  0  0  0  0  0  0  0  0  0
    2.7023   -0.5875   -0.7070 O   0  0  0  0  0  0  0  0  0  0  0  0
    4.0267   -0.5144   -1.2676 C   0  0  0  0  0  0  0  0  0  0  0  0
    4.9753   -1.1596   -0.2645 C   0  0  0  0  0  0  0  0  0  0  0  0
    4.0588   -1.2585   -2.5976 C   0  0  0  0  0  0  0  0  0  0  0  0
   -3.6022   -0.5013    1.9165 C   0  0  0  0  0  0  0  0  0  0  0  0
   -3.8090   -1.2580    0.6350 C   0  0  0  0  0  0  0  0  0  0  0  0
   -3.7233   -0.8191   -0.5010 O   0  0  0  0  0  0  0  0  0  0  0  0
   -4.0934   -2.5561    0.8517 O   0  0  0  0  0  0  0  0  0  0  0  0
   -2.9093    1.5504    3.5483 H   0  0  0  0  0  0  0  0  0  0  0  0
   -3.5761    2.7429    2.7108 H   0  0  0  0  0  0  0  0  0  0  0  0
   -4.1471    1.3576    0.9044 H   0  0  0  0  0  0  0  0  0  0  0  0
   -2.4881    0.6001   -0.6979 H   0  0  0  0  0  0  0  0  0  0  0  0
   -0.0510    2.2251   -0.3937 H   0  0  0  0  0  0  0  0  0  0  0  0
   -0.6315    1.3838   -1.8394 H   0  0  0  0  0  0  0  0  0  0  0  0
    0.0620   -0.8150   -0.8267 H   0  0  0  0  0  0  0  0  0  0  0  0
    0.6509    0.0464    0.6142 H   0  0  0  0  0  0  0  0  0  0  0  0
    4.3280    0.5309   -1.4067 H   0  0  0  0  0  0  0  0  0  0  0  0
    4.9373   -0.6251    0.6911 H   0  0  0  0  0  0  0  0  0  0  0  0
    4.6851   -2.1956   -0.0567 H   0  0  0  0  0  0  0  0  0  0  0  0
    6.0072   -1.1490   -0.6284 H   0  0  0  0  0  0  0  0  0  0  0  0
    3.7231   -2.2942   -2.4755 H   0  0  0  0  0  0  0  0  0  0  0  0
    3.3816   -0.7934   -3.3214 H   0  0  0  0  0  0  0  0  0  0  0  0
    5.0668   -1.2639   -3.0240 H   0  0  0  0  0  0  0  0  0  0  0  0
   -2.7244   -0.9142    2.4265 H   0  0  0  0  0  0  0  0  0  0  0  0
   -4.4899   -0.6770    2.5368 H   0  0  0  0  0  0  0  0  0  0  0  0
   -4.2135   -2.9483   -0.0386 H   0  0  0  0  0  0  0  0  0  0  0  0
  1  2  1  0
  2  3  1  0
  3  4  2  0
  3  5  1  0
  5  6  1  0
  6  7  1  0
  7  8  1  0
  8  9  2  0
  8 10  1  0
 10 11  1  0
 11 12  1  0
 11 13  1  0
  2 14  1  0
 14 15  1  0
 15 16  2  0
 15 17  1  0
  1 18  1  0
  1 19  1  0
  2 20  1  0
  5 21  1  0
  6 22  1  0
  6 23  1  0
  7 24  1  0
  7 25  1  0
 11 26  1  0
 12 27  1  0
 12 28  1  0
 12 29  1  0
 13 30  1  0
 13 31  1  0
 13 32  1  0
 14 33  1  0
 14 34  1  0
 17 35  1  0
M  END
