
     RDKit          3D

 38 37  0  0  0  0  0  0  0  0999 V2000
    5.5970   -1.5713   -1.3906 C   0  0  0  0  0  0  0  0  0  0  0  0
    4.6757   -0.4244   -1.7614 C   0  0  0  0  0  0  0  0  0  0  0  0
    3.3061   -0.8081   -1.5695 O   0  0  0  0  0  0  0  0  0  0  0  0
    2.8054   -0.6039   -0.3207 C   0  0  0  0  0  0  0  0  0  0  0  0
    3.4367   -0.1876    0.6399 O   0  0  0  0  0  0  0  0  0  0  0  0
    1.3573   -1.0142   -0.2700 C   0  0  0  0  0  0  0  0  0  0  0  0
    0.5298    0.0432    0.4523 C   0  0  0  0  0  0  0  0  0  0  0  0
    0.3350    1.2464   -0.4938 C   0  0  0  0  0  0  0  0  0  0  0  0
    1.2602    1.8612   -1.0121 O   0  0  0  0  0  0  0  0  0  0  0  0
   -0.9843    1.5244   -0.7114 O   0  0  0  0  0  0  0  0  0  0  0  0
   -1.2118    2.6511   -1.5588 C   0  0  0  0  0  0  0  0  0  0  0  0
   -0.7527   -0.5426    0.8728 N   0  0  0  0  0  0  0  0  0  0  0  0
   -1.4592    0.0023    1.9230 C   0  0  0  0  0  0  0  0  0  0  0  0
   -0.9986    0.8711    2.6609 O   0  0  0  0  0  0  0  0  0  0  0  0
   -2.8920   -0.5567    2.0995 C   0  0  0  0  0  0  0  0  0  0  0  0
   -3.8623    0.1747    1.1702 C   0  0  0  0  0  0  0  0  0  0  0  0
   -3.7616   -0.3391   -0.2383 C   0  0  0  0  0  0  0  0  0  0  0  0
   -2.9331   -1.1228   -0.6758 O   0  0  0  0  0  0  0  0  0  0  0  0
   -4.7063    0.1852   -1.0414 O   0  0  0  0  0  0  0  0  0  0  0  0
   -3.3066   -0.3541    3.5097 N   0  0  0  0  0  0  0  0  0  0  0  0
    5.3423   -2.4690   -1.9631 H   0  0  0  0  0  0  0  0  0  0  0  0
    6.6404   -1.3102   -1.5885 H   0  0  0  0  0  0  0  0  0  0  0  0
    5.4963   -1.8298   -0.3319 H   0  0  0  0  0  0  0  0  0  0  0  0
    4.9183    0.4837   -1.1977 H   0  0  0  0  0  0  0  0  0  0  0  0
    4.7946   -0.1849   -2.8231 H   0  0  0  0  0  0  0  0  0  0  0  0
    1.3147   -1.9797    0.2477 H   0  0  0  0  0  0  0  0  0  0  0  0
    0.9751   -1.1729   -1.2860 H   0  0  0  0  0  0  0  0  0  0  0  0
    1.0366    0.4215    1.3475 H   0  0  0  0  0  0  0  0  0  0  0  0
   -0.8061    2.4658   -2.5580 H   0  0  0  0  0  0  0  0  0  0  0  0
   -2.2923    2.7951   -1.6456 H   0  0  0  0  0  0  0  0  0  0  0  0
   -0.7757    3.5550   -1.1222 H   0  0  0  0  0  0  0  0  0  0  0  0
   -1.3086   -0.9966    0.1462 H   0  0  0  0  0  0  0  0  0  0  0  0
   -2.8819   -1.6352    1.9047 H   0  0  0  0  0  0  0  0  0  0  0  0
   -4.8943    0.0029    1.5001 H   0  0  0  0  0  0  0  0  0  0  0  0
   -3.6659    1.2530    1.1607 H   0  0  0  0  0  0  0  0  0  0  0  0
   -4.5534   -0.2175   -1.9216 H   0  0  0  0  0  0  0  0  0  0  0  0
   -2.6390   -0.8477    4.1075 H   0  0  0  0  0  0  0  0  0  0  0  0
   -3.1355    0.6315    3.7388 H   0  0  0  0  0  0  0  0  0  0  0  0
  1  2  1  0
  2  3  1  0
  3  4  1  0
  4  5  2  0
  4  6  1  0
  6  7  1  0
  7  8  1  0
  8  9  2  0
  8 10  1  0
 10 11  1  0
  7 12  1  0
 12 13  1  0
 13 14  2  0
 13 15  1  0
 15 16  1  0
 16 17  1  0
 17 18  2  0
 17 19  1  0
 15 20  1  0
  1 21  1  0
  1 22  1  0
  1 23  1  0
  2 24  1  0
  2 25  1  0
  6 26  1  0
  6 27  1  0
  7 28  1  0
 11 29  1  0
 11 30  1  0
 11 31  1  0
 12 32  1  0
 15 33  1  0
 16 34  1  0
 16 35  1  0
 19 36  1  0
 20 37  1  0
 20 38  1  0
M  END
