
     RDKit          3D

 25 25  0  0  0  0  0  0  0  0999 V2000
   -4.8093    0.1647   -0.1420 C   0  0  0  0  0  0  0  0  0  0  0  0
   -3.3500    0.5832   -0.1198 C   0  0  0  0  0  0  0  0  0  0  0  0
   -2.5537   -0.6002   -0.0899 O   0  0  0  0  0  0  0  0  0  0  0  0
   -1.1969   -0.4347   -0.0779 C   0  0  0  0  0  0  0  0  0  0  0  0
   -0.5158    0.7808   -0.0726 C   0  0  0  0  0  0  0  0  0  0  0  0
    0.8862    0.8079   -0.0595 C   0  0  0  0  0  0  0  0  0  0  0  0
    1.6216   -0.3779   -0.0551 C   0  0  0  0  0  0  0  0  0  0  0  0
    0.9346   -1.5958   -0.0555 C   0  0  0  0  0  0  0  0  0  0  0  0
   -0.4634   -1.6213   -0.0679 C   0  0  0  0  0  0  0  0  0  0  0  0
    3.0282   -0.4271   -0.0337 N   0  0  0  0  0  0  0  0  0  0  0  0
    3.9027    0.6196   -0.1461 C   0  0  0  0  0  0  0  0  0  0  0  0
    3.6607    1.7991   -0.3518 O   0  0  0  0  0  0  0  0  0  0  0  0
    5.1983    0.2101   -0.0067 N   0  0  0  0  0  0  0  0  0  0  0  0
   -5.0515   -0.4360    0.7410 H   0  0  0  0  0  0  0  0  0  0  0  0
   -5.4654    1.0393   -0.1650 H   0  0  0  0  0  0  0  0  0  0  0  0
   -5.0186   -0.4578   -1.0182 H   0  0  0  0  0  0  0  0  0  0  0  0
   -3.1318    1.1666   -1.0218 H   0  0  0  0  0  0  0  0  0  0  0  0
   -3.1654    1.1885    0.7751 H   0  0  0  0  0  0  0  0  0  0  0  0
   -1.0379    1.7318   -0.0775 H   0  0  0  0  0  0  0  0  0  0  0  0
    1.3748    1.7778   -0.0506 H   0  0  0  0  0  0  0  0  0  0  0  0
    1.4706   -2.5407   -0.0487 H   0  0  0  0  0  0  0  0  0  0  0  0
   -0.9851   -2.5753   -0.0708 H   0  0  0  0  0  0  0  0  0  0  0  0
    3.4529   -1.3416   -0.0705 H   0  0  0  0  0  0  0  0  0  0  0  0
    5.3760   -0.4573    0.7299 H   0  0  0  0  0  0  0  0  0  0  0  0
    5.8382    0.9963    0.0025 H   0  0  0  0  0  0  0  0  0  0  0  0
  1  2  1  0
  2  3  1  0
  3  4  1  0
  4  5  2  0
  5  6  1  0
  6  7  2  0
  7  8  1  0
  8  9  2  0
  7 10  1  0
 10 11  1  0
 11 12  2  0
 11 13  1  0
  9  4  1  0
  1 14  1  0
  1 15  1  0
  1 16  1  0
  2 17  1  0
  2 18  1  0
  5 19  1  0
  6 20  1  0
  8 21  1  0
  9 22  1  0
 10 23  1  0
 13 24  1  0
 13 25  1  0
M  END
