
     RDKit          3D

 44 43  0  0  0  0  0  0  0  0999 V2000
   -1.1709   -3.2719    0.3841 C   0  0  0  0  0  0  0  0  0  0  0  0
   -0.7675   -2.0566   -0.2490 O   0  0  0  0  0  0  0  0  0  0  0  0
    0.2458   -1.4084    0.3897 C   0  0  0  0  0  0  0  0  0  0  0  0
    0.7621   -1.7720    1.4409 O   0  0  0  0  0  0  0  0  0  0  0  0
    0.6219   -0.1255   -0.3599 C   0  0  0  0  0  0  0  0  0  0  0  0
    2.0457    0.1353   -0.1107 N   0  0  0  0  0  0  0  0  0  0  0  0
    3.0186   -0.4630   -0.8775 C   0  0  0  0  0  0  0  0  0  0  0  0
    2.7593   -1.0988   -1.8983 O   0  0  0  0  0  0  0  0  0  0  0  0
    4.4680   -0.2778   -0.3565 C   0  0  0  0  0  0  0  0  0  0  0  0
    4.9049    1.1850   -0.4542 C   0  0  0  0  0  0  0  0  0  0  0  0
    4.4113    1.9808    0.7224 C   0  0  0  0  0  0  0  0  0  0  0  0
    3.6212    1.6149    1.5789 O   0  0  0  0  0  0  0  0  0  0  0  0
    4.9243    3.2263    0.7457 O   0  0  0  0  0  0  0  0  0  0  0  0
    5.3758   -1.1172   -1.1797 N   0  0  0  0  0  0  0  0  0  0  0  0
   -0.2181    1.0260    0.1667 C   0  0  0  0  0  0  0  0  0  0  0  0
   -1.6027    0.9543   -0.4144 C   0  0  0  0  0  0  0  0  0  0  0  0
   -1.8608    1.2201   -1.5781 O   0  0  0  0  0  0  0  0  0  0  0  0
   -2.4861    0.5487    0.5340 O   0  0  0  0  0  0  0  0  0  0  0  0
   -3.8978    0.4105    0.2255 C   0  0  0  0  0  0  0  0  0  0  0  0
   -4.5372   -0.0686    1.5386 C   0  0  0  0  0  0  0  0  0  0  0  0
   -4.5139    1.7613   -0.1570 C   0  0  0  0  0  0  0  0  0  0  0  0
   -4.1382   -0.6529   -0.8522 C   0  0  0  0  0  0  0  0  0  0  0  0
   -0.3255   -3.9633    0.4666 H   0  0  0  0  0  0  0  0  0  0  0  0
   -1.5999   -3.0638    1.3698 H   0  0  0  0  0  0  0  0  0  0  0  0
   -1.9396   -3.7396   -0.2376 H   0  0  0  0  0  0  0  0  0  0  0  0
    0.4814   -0.2858   -1.4352 H   0  0  0  0  0  0  0  0  0  0  0  0
    2.3075    0.3724    0.8489 H   0  0  0  0  0  0  0  0  0  0  0  0
    4.5142   -0.6490    0.6738 H   0  0  0  0  0  0  0  0  0  0  0  0
    4.5321    1.6513   -1.3733 H   0  0  0  0  0  0  0  0  0  0  0  0
    6.0000    1.2489   -0.4416 H   0  0  0  0  0  0  0  0  0  0  0  0
    4.5440    3.6493    1.5450 H   0  0  0  0  0  0  0  0  0  0  0  0
    5.0468   -2.0847   -1.1114 H   0  0  0  0  0  0  0  0  0  0  0  0
    5.2001   -0.8894   -2.1640 H   0  0  0  0  0  0  0  0  0  0  0  0
   -0.2678    1.0294    1.2627 H   0  0  0  0  0  0  0  0  0  0  0  0
    0.2054    1.9959   -0.1228 H   0  0  0  0  0  0  0  0  0  0  0  0
   -5.6183   -0.2124    1.4375 H   0  0  0  0  0  0  0  0  0  0  0  0
   -4.3584    0.6526    2.3445 H   0  0  0  0  0  0  0  0  0  0  0  0
   -4.0909   -1.0159    1.8650 H   0  0  0  0  0  0  0  0  0  0  0  0
   -4.2712    2.5255    0.5907 H   0  0  0  0  0  0  0  0  0  0  0  0
   -5.6039    1.6920   -0.2425 H   0  0  0  0  0  0  0  0  0  0  0  0
   -4.1321    2.1299   -1.1145 H   0  0  0  0  0  0  0  0  0  0  0  0
   -3.6285   -1.5890   -0.5982 H   0  0  0  0  0  0  0  0  0  0  0  0
   -5.2062   -0.8622   -0.9719 H   0  0  0  0  0  0  0  0  0  0  0  0
   -3.7548   -0.3423   -1.8306 H   0  0  0  0  0  0  0  0  0  0  0  0
  1  2  1  0
  2  3  1  0
  3  4  2  0
  3  5  1  0
  5  6  1  0
  6  7  1  0
  7  8  2  0
  7  9  1  0
  9 10  1  0
 10 11  1  0
 11 12  2  0
 11 13  1  0
  9 14  1  0
  5 15  1  0
 15 16  1  0
 16 17  2  0
 16 18  1  0
 18 19  1  0
 19 20  1  0
 19 21  1  0
 19 22  1  0
  1 23  1  0
  1 24  1  0
  1 25  1  0
  5 26  1  0
  6 27  1  0
  9 28  1  0
 10 29  1  0
 10 30  1  0
 13 31  1  0
 14 32  1  0
 14 33  1  0
 15 34  1  0
 15 35  1  0
 20 36  1  0
 20 37  1  0
 20 38  1  0
 21 39  1  0
 21 40  1  0
 21 41  1  0
 22 42  1  0
 22 43  1  0
 22 44  1  0
M  END
