
     RDKit          3D

 32 31  0  0  0  0  0  0  0  0999 V2000
   -1.2923   -2.1669    2.6465 C   0  0  0  0  0  0  0  0  0  0  0  0
   -1.4126   -2.0005    1.1380 C   0  0  0  0  0  0  0  0  0  0  0  0
   -1.1817   -0.5549    0.6895 C   0  0  0  0  0  0  0  0  0  0  0  0
   -1.4785   -0.4300   -0.8131 C   0  0  0  0  0  0  0  0  0  0  0  0
   -0.6263   -0.4031   -1.6953 O   0  0  0  0  0  0  0  0  0  0  0  0
   -2.8252   -0.3856   -1.0269 O   0  0  0  0  0  0  0  0  0  0  0  0
   -3.1913   -0.2553   -2.4008 C   0  0  0  0  0  0  0  0  0  0  0  0
    0.2025   -0.1456    0.9285 N   0  0  0  0  0  0  0  0  0  0  0  0
    0.5213    1.1913    1.0217 C   0  0  0  0  0  0  0  0  0  0  0  0
   -0.3282    2.0751    1.1241 O   0  0  0  0  0  0  0  0  0  0  0  0
    2.0372    1.5021    0.9782 C   0  0  0  0  0  0  0  0  0  0  0  0
    2.5154    1.5837   -0.4726 C   0  0  0  0  0  0  0  0  0  0  0  0
    2.6373    0.2165   -1.0834 C   0  0  0  0  0  0  0  0  0  0  0  0
    2.4328   -0.8524   -0.5283 O   0  0  0  0  0  0  0  0  0  0  0  0
    3.0057    0.2671   -2.3768 O   0  0  0  0  0  0  0  0  0  0  0  0
    2.2734    2.8018    1.6553 N   0  0  0  0  0  0  0  0  0  0  0  0
   -0.2847   -1.9218    2.9964 H   0  0  0  0  0  0  0  0  0  0  0  0
   -2.0056   -1.5221    3.1695 H   0  0  0  0  0  0  0  0  0  0  0  0
   -1.5023   -3.2035    2.9288 H   0  0  0  0  0  0  0  0  0  0  0  0
   -2.4121   -2.3311    0.8301 H   0  0  0  0  0  0  0  0  0  0  0  0
   -0.6972   -2.6702    0.6441 H   0  0  0  0  0  0  0  0  0  0  0  0
   -1.8465    0.1330    1.2255 H   0  0  0  0  0  0  0  0  0  0  0  0
   -2.7812    0.6681   -2.8219 H   0  0  0  0  0  0  0  0  0  0  0  0
   -2.8529   -1.1261   -2.9708 H   0  0  0  0  0  0  0  0  0  0  0  0
   -4.2822   -0.2067   -2.4577 H   0  0  0  0  0  0  0  0  0  0  0  0
    0.9226   -0.7518    0.5309 H   0  0  0  0  0  0  0  0  0  0  0  0
    2.5769    0.7298    1.5382 H   0  0  0  0  0  0  0  0  0  0  0  0
    1.8187    2.1740   -1.0794 H   0  0  0  0  0  0  0  0  0  0  0  0
    3.5089    2.0456   -0.5171 H   0  0  0  0  0  0  0  0  0  0  0  0
    2.9840   -0.6635   -2.6831 H   0  0  0  0  0  0  0  0  0  0  0  0
    1.9340    2.7205    2.6164 H   0  0  0  0  0  0  0  0  0  0  0  0
    1.6302    3.4827    1.2370 H   0  0  0  0  0  0  0  0  0  0  0  0
  1  2  1  0
  2  3  1  0
  3  4  1  0
  4  5  2  0
  4  6  1  0
  6  7  1  0
  3  8  1  0
  8  9  1  0
  9 10  2  0
  9 11  1  0
 11 12  1  0
 12 13  1  0
 13 14  2  0
 13 15  1  0
 11 16  1  0
  1 17  1  0
  1 18  1  0
  1 19  1  0
  2 20  1  0
  2 21  1  0
  3 22  1  0
  7 23  1  0
  7 24  1  0
  7 25  1  0
  8 26  1  0
 11 27  1  0
 12 28  1  0
 12 29  1  0
 15 30  1  0
 16 31  1  0
 16 32  1  0
M  END
