
     RDKit          3D

 30 29  0  0  0  0  0  0  0  0999 V2000
   -1.7586    1.0918    2.1804 O   0  0  0  0  0  0  0  0  0  0  0  0
   -2.0398   -0.1099    1.4599 C   0  0  0  0  0  0  0  0  0  0  0  0
   -1.5822   -0.0100   -0.0016 C   0  0  0  0  0  0  0  0  0  0  0  0
   -2.4292   -0.9308   -0.8784 C   0  0  0  0  0  0  0  0  0  0  0  0
   -2.0060   -1.9384   -1.4350 O   0  0  0  0  0  0  0  0  0  0  0  0
   -3.7063   -0.4658   -0.9777 O   0  0  0  0  0  0  0  0  0  0  0  0
   -4.5597   -1.2688   -1.7948 C   0  0  0  0  0  0  0  0  0  0  0  0
   -0.1683   -0.3666   -0.1672 N   0  0  0  0  0  0  0  0  0  0  0  0
    0.8651    0.3932    0.3263 C   0  0  0  0  0  0  0  0  0  0  0  0
    0.6841    1.3574    1.0640 O   0  0  0  0  0  0  0  0  0  0  0  0
    2.2572   -0.1175   -0.1112 C   0  0  0  0  0  0  0  0  0  0  0  0
    3.3480    0.8892    0.2482 C   0  0  0  0  0  0  0  0  0  0  0  0
    3.5762    0.9096    1.7343 C   0  0  0  0  0  0  0  0  0  0  0  0
    3.3278    0.0173    2.5268 O   0  0  0  0  0  0  0  0  0  0  0  0
    4.1744    2.0460    2.1407 O   0  0  0  0  0  0  0  0  0  0  0  0
    2.2188   -0.3727   -1.5758 N   0  0  0  0  0  0  0  0  0  0  0  0
   -0.8187    1.3199    2.0020 H   0  0  0  0  0  0  0  0  0  0  0  0
   -3.1202   -0.2681    1.5350 H   0  0  0  0  0  0  0  0  0  0  0  0
   -1.5493   -0.9414    1.9781 H   0  0  0  0  0  0  0  0  0  0  0  0
   -1.6869    1.0150   -0.3775 H   0  0  0  0  0  0  0  0  0  0  0  0
   -5.5529   -0.8114   -1.7992 H   0  0  0  0  0  0  0  0  0  0  0  0
   -4.6452   -2.2791   -1.3825 H   0  0  0  0  0  0  0  0  0  0  0  0
   -4.1872   -1.2989   -2.8235 H   0  0  0  0  0  0  0  0  0  0  0  0
    0.0786   -1.0073   -0.9234 H   0  0  0  0  0  0  0  0  0  0  0  0
    2.4241   -1.0768    0.3930 H   0  0  0  0  0  0  0  0  0  0  0  0
    4.3003    0.6167   -0.2212 H   0  0  0  0  0  0  0  0  0  0  0  0
    3.0690    1.8957   -0.0857 H   0  0  0  0  0  0  0  0  0  0  0  0
    4.2450    1.9469    3.1137 H   0  0  0  0  0  0  0  0  0  0  0  0
    3.1192   -0.7536   -1.8695 H   0  0  0  0  0  0  0  0  0  0  0  0
    2.1227    0.5184   -2.0665 H   0  0  0  0  0  0  0  0  0  0  0  0
  1  2  1  0
  2  3  1  0
  3  4  1  0
  4  5  2  0
  4  6  1  0
  6  7  1  0
  3  8  1  0
  8  9  1  0
  9 10  2  0
  9 11  1  0
 11 12  1  0
 12 13  1  0
 13 14  2  0
 13 15  1  0
 11 16  1  0
  1 17  1  0
  2 18  1  0
  2 19  1  0
  3 20  1  0
  7 21  1  0
  7 22  1  0
  7 23  1  0
  8 24  1  0
 11 25  1  0
 12 26  1  0
 12 27  1  0
 15 28  1  0
 16 29  1  0
 16 30  1  0
M  END
