
     RDKit          3D

 33 32  0  0  0  0  0  0  0  0999 V2000
   -5.0258    0.0695    2.3074 C   0  0  0  0  0  0  0  0  0  0  0  0
   -3.5466   -0.1655    2.5426 C   0  0  0  0  0  0  0  0  0  0  0  0
   -2.8881   -0.1769    1.2705 O   0  0  0  0  0  0  0  0  0  0  0  0
   -1.5387   -0.3599    1.3417 C   0  0  0  0  0  0  0  0  0  0  0  0
   -0.9069   -0.5372    2.3789 O   0  0  0  0  0  0  0  0  0  0  0  0
   -0.9176   -0.3519   -0.0541 C   0  0  0  0  0  0  0  0  0  0  0  0
    0.4730   -0.8042    0.0414 N   0  0  0  0  0  0  0  0  0  0  0  0
    1.1897   -1.1669   -1.0703 C   0  0  0  0  0  0  0  0  0  0  0  0
    0.6763   -1.3125   -2.1770 O   0  0  0  0  0  0  0  0  0  0  0  0
    2.6916   -1.4067   -0.8143 C   0  0  0  0  0  0  0  0  0  0  0  0
    3.5188   -0.5479   -1.7706 C   0  0  0  0  0  0  0  0  0  0  0  0
    3.3176    0.9125   -1.4715 C   0  0  0  0  0  0  0  0  0  0  0  0
    2.4832    1.4037   -0.7270 O   0  0  0  0  0  0  0  0  0  0  0  0
    4.1797    1.6933   -2.1500 O   0  0  0  0  0  0  0  0  0  0  0  0
    2.9804   -2.8414   -1.0292 N   0  0  0  0  0  0  0  0  0  0  0  0
   -1.0189    1.0470   -0.6739 C   0  0  0  0  0  0  0  0  0  0  0  0
   -0.1720    1.9839   -0.0048 O   0  0  0  0  0  0  0  0  0  0  0  0
   -5.4450   -0.7184    1.6729 H   0  0  0  0  0  0  0  0  0  0  0  0
   -5.5735    0.0893    3.2538 H   0  0  0  0  0  0  0  0  0  0  0  0
   -5.1870    1.0183    1.7853 H   0  0  0  0  0  0  0  0  0  0  0  0
   -3.1381    0.6391    3.1638 H   0  0  0  0  0  0  0  0  0  0  0  0
   -3.4001   -1.1294    3.0425 H   0  0  0  0  0  0  0  0  0  0  0  0
   -1.4621   -1.0776   -0.6695 H   0  0  0  0  0  0  0  0  0  0  0  0
    0.9533   -0.5769    0.9078 H   0  0  0  0  0  0  0  0  0  0  0  0
    2.9400   -1.1583    0.2238 H   0  0  0  0  0  0  0  0  0  0  0  0
    3.2373   -0.7235   -2.8152 H   0  0  0  0  0  0  0  0  0  0  0  0
    4.5837   -0.7769   -1.6457 H   0  0  0  0  0  0  0  0  0  0  0  0
    3.9539    2.6132   -1.8974 H   0  0  0  0  0  0  0  0  0  0  0  0
    2.6650   -3.0905   -1.9714 H   0  0  0  0  0  0  0  0  0  0  0  0
    2.3904   -3.3927   -0.4037 H   0  0  0  0  0  0  0  0  0  0  0  0
   -0.7259    1.0319   -1.7291 H   0  0  0  0  0  0  0  0  0  0  0  0
   -2.0423    1.4314   -0.6218 H   0  0  0  0  0  0  0  0  0  0  0  0
    0.7545    1.7543   -0.2359 H   0  0  0  0  0  0  0  0  0  0  0  0
  1  2  1  0
  2  3  1  0
  3  4  1  0
  4  5  2  0
  4  6  1  0
  6  7  1  0
  7  8  1  0
  8  9  2  0
  8 10  1  0
 10 11  1  0
 11 12  1  0
 12 13  2  0
 12 14  1  0
 10 15  1  0
  6 16  1  0
 16 17  1  0
  1 18  1  0
  1 19  1  0
  1 20  1  0
  2 21  1  0
  2 22  1  0
  6 23  1  0
  7 24  1  0
 10 25  1  0
 11 26  1  0
 11 27  1  0
 14 28  1  0
 15 29  1  0
 15 30  1  0
 16 31  1  0
 16 32  1  0
 17 33  1  0
M  END
