
     RDKit          3D

 36 35  0  0  0  0  0  0  0  0999 V2000
    0.6744   -2.7356    2.5016 O   0  0  0  0  0  0  0  0  0  0  0  0
    0.0266   -1.4736    2.3300 C   0  0  0  0  0  0  0  0  0  0  0  0
   -0.7160   -1.3815    0.9875 C   0  0  0  0  0  0  0  0  0  0  0  0
   -1.8649   -0.3728    1.1226 C   0  0  0  0  0  0  0  0  0  0  0  0
   -2.7523   -0.4425    1.9630 O   0  0  0  0  0  0  0  0  0  0  0  0
   -1.7639    0.6148    0.1841 O   0  0  0  0  0  0  0  0  0  0  0  0
   -2.7781    1.6366    0.2130 C   0  0  0  0  0  0  0  0  0  0  0  0
   -2.3984    2.7001    1.2367 C   0  0  0  0  0  0  0  0  0  0  0  0
   -2.8479    2.2355   -1.1863 C   0  0  0  0  0  0  0  0  0  0  0  0
    0.1908   -1.0306   -0.1189 N   0  0  0  0  0  0  0  0  0  0  0  0
    1.1632   -1.8644   -0.5991 C   0  0  0  0  0  0  0  0  0  0  0  0
    1.3940   -2.9590   -0.0858 O   0  0  0  0  0  0  0  0  0  0  0  0
    1.9587   -1.3282   -1.8142 C   0  0  0  0  0  0  0  0  0  0  0  0
    2.9931   -0.2948   -1.3666 C   0  0  0  0  0  0  0  0  0  0  0  0
    2.3635    1.0542   -1.1625 C   0  0  0  0  0  0  0  0  0  0  0  0
    1.1716    1.3172   -1.1741 O   0  0  0  0  0  0  0  0  0  0  0  0
    3.2791    2.0113   -0.9231 O   0  0  0  0  0  0  0  0  0  0  0  0
    2.6481   -2.4686   -2.4662 N   0  0  0  0  0  0  0  0  0  0  0  0
    1.0746   -2.9883    1.6407 H   0  0  0  0  0  0  0  0  0  0  0  0
   -0.6575   -1.3623    3.1771 H   0  0  0  0  0  0  0  0  0  0  0  0
    0.7863   -0.6886    2.4153 H   0  0  0  0  0  0  0  0  0  0  0  0
   -1.1584   -2.3503    0.7262 H   0  0  0  0  0  0  0  0  0  0  0  0
   -3.7551    1.2012    0.4551 H   0  0  0  0  0  0  0  0  0  0  0  0
   -3.1252    3.5180    1.2464 H   0  0  0  0  0  0  0  0  0  0  0  0
   -2.3481    2.2727    2.2434 H   0  0  0  0  0  0  0  0  0  0  0  0
   -1.4064    3.1130    1.0222 H   0  0  0  0  0  0  0  0  0  0  0  0
   -3.6013    3.0270   -1.2437 H   0  0  0  0  0  0  0  0  0  0  0  0
   -3.0988    1.4610   -1.9192 H   0  0  0  0  0  0  0  0  0  0  0  0
   -1.8787    2.6492   -1.4865 H   0  0  0  0  0  0  0  0  0  0  0  0
    0.0529   -0.1149   -0.5551 H   0  0  0  0  0  0  0  0  0  0  0  0
    1.2523   -0.9074   -2.5390 H   0  0  0  0  0  0  0  0  0  0  0  0
    3.4787   -0.5978   -0.4320 H   0  0  0  0  0  0  0  0  0  0  0  0
    3.7586   -0.1735   -2.1431 H   0  0  0  0  0  0  0  0  0  0  0  0
    2.7691    2.8404   -0.8087 H   0  0  0  0  0  0  0  0  0  0  0  0
    1.9382   -3.1496   -2.7467 H   0  0  0  0  0  0  0  0  0  0  0  0
    3.1771   -2.9677   -1.7433 H   0  0  0  0  0  0  0  0  0  0  0  0
  1  2  1  0
  2  3  1  0
  3  4  1  0
  4  5  2  0
  4  6  1  0
  6  7  1  0
  7  8  1  0
  7  9  1  0
  3 10  1  0
 10 11  1  0
 11 12  2  0
 11 13  1  0
 13 14  1  0
 14 15  1  0
 15 16  2  0
 15 17  1  0
 13 18  1  0
  1 19  1  0
  2 20  1  0
  2 21  1  0
  3 22  1  0
  7 23  1  0
  8 24  1  0
  8 25  1  0
  8 26  1  0
  9 27  1  0
  9 28  1  0
  9 29  1  0
 10 30  1  0
 13 31  1  0
 14 32  1  0
 14 33  1  0
 17 34  1  0
 18 35  1  0
 18 36  1  0
M  END
