
     RDKit          3D

 39 38  0  0  0  0  0  0  0  0999 V2000
    4.4983   -2.5250    0.4577 C   0  0  0  0  0  0  0  0  0  0  0  0
    4.7468   -1.0294    0.3397 C   0  0  0  0  0  0  0  0  0  0  0  0
    4.2941   -0.2361    1.5695 C   0  0  0  0  0  0  0  0  0  0  0  0
    2.7964   -0.3149    1.8559 C   0  0  0  0  0  0  0  0  0  0  0  0
    2.0740    0.1450    0.7068 O   0  0  0  0  0  0  0  0  0  0  0  0
    0.7198    0.0489    0.8135 C   0  0  0  0  0  0  0  0  0  0  0  0
    0.1197   -0.3796    1.7924 O   0  0  0  0  0  0  0  0  0  0  0  0
    0.0451    0.5332   -0.4659 C   0  0  0  0  0  0  0  0  0  0  0  0
   -1.3503    0.8906   -0.1739 N   0  0  0  0  0  0  0  0  0  0  0  0
   -2.1536    1.5387   -1.0739 C   0  0  0  0  0  0  0  0  0  0  0  0
   -1.7525    1.8530   -2.1950 O   0  0  0  0  0  0  0  0  0  0  0  0
   -3.5957    1.8309   -0.5957 C   0  0  0  0  0  0  0  0  0  0  0  0
   -4.4844    0.6047   -0.8059 C   0  0  0  0  0  0  0  0  0  0  0  0
   -4.2640   -0.4127    0.2760 C   0  0  0  0  0  0  0  0  0  0  0  0
   -3.4157   -0.3756    1.1520 O   0  0  0  0  0  0  0  0  0  0  0  0
   -5.1166   -1.4496    0.1846 O   0  0  0  0  0  0  0  0  0  0  0  0
   -4.1292    2.9705   -1.3820 N   0  0  0  0  0  0  0  0  0  0  0  0
    0.1542   -0.5597   -1.5377 C   0  0  0  0  0  0  0  0  0  0  0  0
    0.1039   -0.0165   -2.8581 O   0  0  0  0  0  0  0  0  0  0  0  0
    4.9551   -2.9291    1.3666 H   0  0  0  0  0  0  0  0  0  0  0  0
    4.9331   -3.0466   -0.4009 H   0  0  0  0  0  0  0  0  0  0  0  0
    3.4285   -2.7528    0.4755 H   0  0  0  0  0  0  0  0  0  0  0  0
    4.2510   -0.6488   -0.5608 H   0  0  0  0  0  0  0  0  0  0  0  0
    5.8216   -0.8639    0.1984 H   0  0  0  0  0  0  0  0  0  0  0  0
    4.5629    0.8142    1.4018 H   0  0  0  0  0  0  0  0  0  0  0  0
    4.8488   -0.5742    2.4524 H   0  0  0  0  0  0  0  0  0  0  0  0
    2.5586    0.3301    2.7097 H   0  0  0  0  0  0  0  0  0  0  0  0
    2.5046   -1.3429    2.0979 H   0  0  0  0  0  0  0  0  0  0  0  0
    0.5368    1.4560   -0.7968 H   0  0  0  0  0  0  0  0  0  0  0  0
   -1.7645    0.4979    0.6775 H   0  0  0  0  0  0  0  0  0  0  0  0
   -3.5674    2.1353    0.4568 H   0  0  0  0  0  0  0  0  0  0  0  0
   -4.2854    0.1320   -1.7745 H   0  0  0  0  0  0  0  0  0  0  0  0
   -5.5408    0.8965   -0.7605 H   0  0  0  0  0  0  0  0  0  0  0  0
   -4.8852   -2.0397    0.9328 H   0  0  0  0  0  0  0  0  0  0  0  0
   -3.5211    3.7775   -1.2251 H   0  0  0  0  0  0  0  0  0  0  0  0
   -3.9875    2.7560   -2.3746 H   0  0  0  0  0  0  0  0  0  0  0  0
   -0.6534   -1.2937   -1.4415 H   0  0  0  0  0  0  0  0  0  0  0  0
    1.1026   -1.1015   -1.4620 H   0  0  0  0  0  0  0  0  0  0  0  0
   -0.5887    0.6808   -2.8678 H   0  0  0  0  0  0  0  0  0  0  0  0
  1  2  1  0
  2  3  1  0
  3  4  1  0
  4  5  1  0
  5  6  1  0
  6  7  2  0
  6  8  1  0
  8  9  1  0
  9 10  1  0
 10 11  2  0
 10 12  1  0
 12 13  1  0
 13 14  1  0
 14 15  2  0
 14 16  1  0
 12 17  1  0
  8 18  1  0
 18 19  1  0
  1 20  1  0
  1 21  1  0
  1 22  1  0
  2 23  1  0
  2 24  1  0
  3 25  1  0
  3 26  1  0
  4 27  1  0
  4 28  1  0
  8 29  1  0
  9 30  1  0
 12 31  1  0
 13 32  1  0
 13 33  1  0
 16 34  1  0
 17 35  1  0
 17 36  1  0
 18 37  1  0
 18 38  1  0
 19 39  1  0
M  END
