
     RDKit          3D

 39 38  0  0  0  0  0  0  0  0999 V2000
   -0.1774   -2.8325    1.4261 O   0  0  0  0  0  0  0  0  0  0  0  0
   -0.1409   -3.3047    0.0766 C   0  0  0  0  0  0  0  0  0  0  0  0
    0.1604   -2.1538   -0.8880 C   0  0  0  0  0  0  0  0  0  0  0  0
   -1.0778   -1.2495   -0.9687 C   0  0  0  0  0  0  0  0  0  0  0  0
   -2.1795   -1.6455   -1.3372 O   0  0  0  0  0  0  0  0  0  0  0  0
   -0.8093    0.0290   -0.5705 O   0  0  0  0  0  0  0  0  0  0  0  0
   -1.9154    0.9433   -0.6079 C   0  0  0  0  0  0  0  0  0  0  0  0
   -2.7761    0.8297    0.6583 C   0  0  0  0  0  0  0  0  0  0  0  0
   -1.9555    1.1090    1.9186 C   0  0  0  0  0  0  0  0  0  0  0  0
   -3.9670    1.7824    0.5761 C   0  0  0  0  0  0  0  0  0  0  0  0
    1.3797   -1.4513   -0.4772 N   0  0  0  0  0  0  0  0  0  0  0  0
    2.1114   -0.7282   -1.3871 C   0  0  0  0  0  0  0  0  0  0  0  0
    1.8997   -0.7767   -2.5984 O   0  0  0  0  0  0  0  0  0  0  0  0
    3.2236    0.1593   -0.7808 C   0  0  0  0  0  0  0  0  0  0  0  0
    2.6342    1.4906   -0.3132 C   0  0  0  0  0  0  0  0  0  0  0  0
    1.9451    1.3403    1.0118 C   0  0  0  0  0  0  0  0  0  0  0  0
    1.8201    0.3150    1.6613 O   0  0  0  0  0  0  0  0  0  0  0  0
    1.4335    2.5033    1.4571 O   0  0  0  0  0  0  0  0  0  0  0  0
    4.2482    0.4104   -1.8265 N   0  0  0  0  0  0  0  0  0  0  0  0
   -0.3555   -3.6041    1.9926 H   0  0  0  0  0  0  0  0  0  0  0  0
   -1.0995   -3.7832   -0.1486 H   0  0  0  0  0  0  0  0  0  0  0  0
    0.6497   -4.0603    0.0151 H   0  0  0  0  0  0  0  0  0  0  0  0
    0.3173   -2.5505   -1.8980 H   0  0  0  0  0  0  0  0  0  0  0  0
   -2.5112    0.7857   -1.5155 H   0  0  0  0  0  0  0  0  0  0  0  0
   -1.4883    1.9498   -0.6863 H   0  0  0  0  0  0  0  0  0  0  0  0
   -3.1581   -0.1951    0.7402 H   0  0  0  0  0  0  0  0  0  0  0  0
   -2.5813    1.0291    2.8139 H   0  0  0  0  0  0  0  0  0  0  0  0
   -1.5256    2.1160    1.8964 H   0  0  0  0  0  0  0  0  0  0  0  0
   -1.1365    0.3904    2.0242 H   0  0  0  0  0  0  0  0  0  0  0  0
   -4.5816    1.5608   -0.3028 H   0  0  0  0  0  0  0  0  0  0  0  0
   -4.6042    1.6864    1.4616 H   0  0  0  0  0  0  0  0  0  0  0  0
   -3.6386    2.8250    0.5065 H   0  0  0  0  0  0  0  0  0  0  0  0
    1.4100   -1.1716    0.5056 H   0  0  0  0  0  0  0  0  0  0  0  0
    3.7084   -0.3829    0.0389 H   0  0  0  0  0  0  0  0  0  0  0  0
    1.9116    1.8790   -1.0402 H   0  0  0  0  0  0  0  0  0  0  0  0
    3.4339    2.2283   -0.1746 H   0  0  0  0  0  0  0  0  0  0  0  0
    1.0195    2.2794    2.3171 H   0  0  0  0  0  0  0  0  0  0  0  0
    4.6201   -0.4949   -2.1227 H   0  0  0  0  0  0  0  0  0  0  0  0
    3.7530    0.7425   -2.6614 H   0  0  0  0  0  0  0  0  0  0  0  0
  1  2  1  0
  2  3  1  0
  3  4  1  0
  4  5  2  0
  4  6  1  0
  6  7  1  0
  7  8  1  0
  8  9  1  0
  8 10  1  0
  3 11  1  0
 11 12  1  0
 12 13  2  0
 12 14  1  0
 14 15  1  0
 15 16  1  0
 16 17  2  0
 16 18  1  0
 14 19  1  0
  1 20  1  0
  2 21  1  0
  2 22  1  0
  3 23  1  0
  7 24  1  0
  7 25  1  0
  8 26  1  0
  9 27  1  0
  9 28  1  0
  9 29  1  0
 10 30  1  0
 10 31  1  0
 10 32  1  0
 11 33  1  0
 14 34  1  0
 15 35  1  0
 15 36  1  0
 18 37  1  0
 19 38  1  0
 19 39  1  0
M  END
