
     RDKit          3D

 43 43  0  0  0  0  0  0  0  0999 V2000
    0.5777    2.5306    1.0365 O   0  0  0  0  0  0  0  0  0  0  0  0
    0.0479    1.7047   -0.0020 C   0  0  0  0  0  0  0  0  0  0  0  0
    0.3952    0.2258    0.2125 C   0  0  0  0  0  0  0  0  0  0  0  0
   -0.6503   -0.6359   -0.4868 C   0  0  0  0  0  0  0  0  0  0  0  0
   -0.4976   -1.1425   -1.5929 O   0  0  0  0  0  0  0  0  0  0  0  0
   -1.7732   -0.7385    0.2767 O   0  0  0  0  0  0  0  0  0  0  0  0
   -2.8568   -1.5138   -0.2757 C   0  0  0  0  0  0  0  0  0  0  0  0
   -3.6852   -0.6499   -1.2339 C   0  0  0  0  0  0  0  0  0  0  0  0
   -4.3951    0.4953   -0.5113 C   0  0  0  0  0  0  0  0  0  0  0  0
   -5.2454   -0.0140    0.6485 C   0  0  0  0  0  0  0  0  0  0  0  0
   -4.4283   -0.8656    1.6153 C   0  0  0  0  0  0  0  0  0  0  0  0
   -3.7143   -2.0091    0.8937 C   0  0  0  0  0  0  0  0  0  0  0  0
    1.7184   -0.1246   -0.3115 N   0  0  0  0  0  0  0  0  0  0  0  0
    2.8915    0.3878    0.1866 C   0  0  0  0  0  0  0  0  0  0  0  0
    2.9216    1.1660    1.1355 O   0  0  0  0  0  0  0  0  0  0  0  0
    4.1432   -0.1135   -0.5687 C   0  0  0  0  0  0  0  0  0  0  0  0
    5.3893    0.6574   -0.1379 C   0  0  0  0  0  0  0  0  0  0  0  0
    5.7942    0.2662    1.2564 C   0  0  0  0  0  0  0  0  0  0  0  0
    5.5337   -0.7772    1.8304 O   0  0  0  0  0  0  0  0  0  0  0  0
    6.5739    1.1975    1.8388 O   0  0  0  0  0  0  0  0  0  0  0  0
    3.8942    0.0340   -2.0272 N   0  0  0  0  0  0  0  0  0  0  0  0
    1.4982    2.2314    1.2098 H   0  0  0  0  0  0  0  0  0  0  0  0
   -1.0352    1.8642   -0.0020 H   0  0  0  0  0  0  0  0  0  0  0  0
    0.4351    2.0714   -0.9591 H   0  0  0  0  0  0  0  0  0  0  0  0
    0.4116   -0.0226    1.2803 H   0  0  0  0  0  0  0  0  0  0  0  0
   -2.4549   -2.3878   -0.8031 H   0  0  0  0  0  0  0  0  0  0  0  0
   -4.4324   -1.2790   -1.7332 H   0  0  0  0  0  0  0  0  0  0  0  0
   -3.0456   -0.2238   -2.0148 H   0  0  0  0  0  0  0  0  0  0  0  0
   -5.0296    1.0387   -1.2207 H   0  0  0  0  0  0  0  0  0  0  0  0
   -3.6545    1.2114   -0.1355 H   0  0  0  0  0  0  0  0  0  0  0  0
   -6.0790   -0.6087    0.2550 H   0  0  0  0  0  0  0  0  0  0  0  0
   -5.6844    0.8347    1.1848 H   0  0  0  0  0  0  0  0  0  0  0  0
   -3.6919   -0.2335    2.1263 H   0  0  0  0  0  0  0  0  0  0  0  0
   -5.0859   -1.2752    2.3905 H   0  0  0  0  0  0  0  0  0  0  0  0
   -4.4600   -2.7223    0.5217 H   0  0  0  0  0  0  0  0  0  0  0  0
   -3.0842   -2.5394    1.6175 H   0  0  0  0  0  0  0  0  0  0  0  0
    1.7759   -0.5613   -1.2329 H   0  0  0  0  0  0  0  0  0  0  0  0
    4.2472   -1.1831   -0.3513 H   0  0  0  0  0  0  0  0  0  0  0  0
    6.2357    0.4298   -0.7961 H   0  0  0  0  0  0  0  0  0  0  0  0
    5.2042    1.7378   -0.1680 H   0  0  0  0  0  0  0  0  0  0  0  0
    6.7480    0.8406    2.7353 H   0  0  0  0  0  0  0  0  0  0  0  0
    4.6973   -0.3326   -2.5397 H   0  0  0  0  0  0  0  0  0  0  0  0
    3.8499    1.0284   -2.2589 H   0  0  0  0  0  0  0  0  0  0  0  0
  1  2  1  0
  2  3  1  0
  3  4  1  0
  4  5  2  0
  4  6  1  0
  6  7  1  0
  7  8  1  0
  8  9  1  0
  9 10  1  0
 10 11  1  0
 11 12  1  0
  3 13  1  0
 13 14  1  0
 14 15  2  0
 14 16  1  0
 16 17  1  0
 17 18  1  0
 18 19  2  0
 18 20  1  0
 16 21  1  0
 12  7  1  0
  1 22  1  0
  2 23  1  0
  2 24  1  0
  3 25  1  0
  7 26  1  0
  8 27  1  0
  8 28  1  0
  9 29  1  0
  9 30  1  0
 10 31  1  0
 10 32  1  0
 11 33  1  0
 11 34  1  0
 12 35  1  0
 12 36  1  0
 13 37  1  0
 16 38  1  0
 17 39  1  0
 17 40  1  0
 20 41  1  0
 21 42  1  0
 21 43  1  0
M  END
