
     RDKit          3D

 33 32  0  0  0  0  0  0  0  0999 V2000
   -1.7099   -3.9171   -0.2907 C   0  0  0  0  0  0  0  0  0  0  0  0
   -1.2134   -2.5829   -0.1579 O   0  0  0  0  0  0  0  0  0  0  0  0
   -2.1257   -1.7000    0.3554 C   0  0  0  0  0  0  0  0  0  0  0  0
   -3.2687   -1.9995    0.6754 O   0  0  0  0  0  0  0  0  0  0  0  0
   -1.5210   -0.2925    0.4861 C   0  0  0  0  0  0  0  0  0  0  0  0
   -2.4624    0.7312   -0.1949 C   0  0  0  0  0  0  0  0  0  0  0  0
   -2.2754    2.0543    0.3203 O   0  0  0  0  0  0  0  0  0  0  0  0
   -2.3190    0.7828   -1.7123 C   0  0  0  0  0  0  0  0  0  0  0  0
   -0.1353   -0.2531   -0.0165 N   0  0  0  0  0  0  0  0  0  0  0  0
    0.7265    0.7828    0.2619 C   0  0  0  0  0  0  0  0  0  0  0  0
    0.3509    1.8258    0.7893 O   0  0  0  0  0  0  0  0  0  0  0  0
    2.1649    0.5493   -0.2489 C   0  0  0  0  0  0  0  0  0  0  0  0
    3.1461    1.5136    0.4152 C   0  0  0  0  0  0  0  0  0  0  0  0
    3.2721    1.1878    1.8767 C   0  0  0  0  0  0  0  0  0  0  0  0
    2.8487    0.1954    2.4461 O   0  0  0  0  0  0  0  0  0  0  0  0
    3.9655    2.1261    2.5493 O   0  0  0  0  0  0  0  0  0  0  0  0
    2.1720    0.7421   -1.7181 N   0  0  0  0  0  0  0  0  0  0  0  0
   -2.5612   -3.9420   -0.9784 H   0  0  0  0  0  0  0  0  0  0  0  0
   -1.9876   -4.3215    0.6876 H   0  0  0  0  0  0  0  0  0  0  0  0
   -0.9101   -4.5358   -0.7073 H   0  0  0  0  0  0  0  0  0  0  0  0
   -1.4572   -0.0775    1.5603 H   0  0  0  0  0  0  0  0  0  0  0  0
   -3.5033    0.4783    0.0363 H   0  0  0  0  0  0  0  0  0  0  0  0
   -1.3172    2.1848    0.4941 H   0  0  0  0  0  0  0  0  0  0  0  0
   -2.4607   -0.2034   -2.1639 H   0  0  0  0  0  0  0  0  0  0  0  0
   -1.3409    1.1742   -2.0107 H   0  0  0  0  0  0  0  0  0  0  0  0
   -3.0629    1.4667   -2.1362 H   0  0  0  0  0  0  0  0  0  0  0  0
    0.2658   -1.1491   -0.2793 H   0  0  0  0  0  0  0  0  0  0  0  0
    2.4485   -0.4885   -0.0362 H   0  0  0  0  0  0  0  0  0  0  0  0
    2.8113    2.5524    0.3122 H   0  0  0  0  0  0  0  0  0  0  0  0
    4.1411    1.4155   -0.0338 H   0  0  0  0  0  0  0  0  0  0  0  0
    3.9682    1.8147    3.4786 H   0  0  0  0  0  0  0  0  0  0  0  0
    1.9162    1.7107   -1.9243 H   0  0  0  0  0  0  0  0  0  0  0  0
    1.4340    0.1744   -2.1355 H   0  0  0  0  0  0  0  0  0  0  0  0
  1  2  1  0
  2  3  1  0
  3  4  2  0
  3  5  1  0
  5  6  1  0
  6  7  1  0
  6  8  1  0
  5  9  1  0
  9 10  1  0
 10 11  2  0
 10 12  1  0
 12 13  1  0
 13 14  1  0
 14 15  2  0
 14 16  1  0
 12 17  1  0
  1 18  1  0
  1 19  1  0
  1 20  1  0
  5 21  1  0
  6 22  1  0
  7 23  1  0
  8 24  1  0
  8 25  1  0
  8 26  1  0
  9 27  1  0
 12 28  1  0
 13 29  1  0
 13 30  1  0
 16 31  1  0
 17 32  1  0
 17 33  1  0
M  END
