
     RDKit          3D

 36 35  0  0  0  0  0  0  0  0999 V2000
    3.7368    1.6054    1.4223 C   0  0  0  0  0  0  0  0  0  0  0  0
    3.2123    1.3055    0.0308 C   0  0  0  0  0  0  0  0  0  0  0  0
    2.4417    0.0949    0.0443 O   0  0  0  0  0  0  0  0  0  0  0  0
    1.1212    0.2313    0.3487 C   0  0  0  0  0  0  0  0  0  0  0  0
    0.5691    1.2861    0.6445 O   0  0  0  0  0  0  0  0  0  0  0  0
    0.4141   -1.1252    0.2984 C   0  0  0  0  0  0  0  0  0  0  0  0
    0.4301   -1.7890    1.6855 C   0  0  0  0  0  0  0  0  0  0  0  0
   -0.3672   -2.9832    1.6563 O   0  0  0  0  0  0  0  0  0  0  0  0
    1.8227   -2.1950    2.1487 C   0  0  0  0  0  0  0  0  0  0  0  0
   -0.9816   -0.8964   -0.1250 N   0  0  0  0  0  0  0  0  0  0  0  0
   -1.2659   -0.7002   -1.4600 C   0  0  0  0  0  0  0  0  0  0  0  0
   -0.4459   -0.9107   -2.3516 O   0  0  0  0  0  0  0  0  0  0  0  0
   -2.6951   -0.1812   -1.7537 C   0  0  0  0  0  0  0  0  0  0  0  0
   -2.7414    1.3423   -1.6206 C   0  0  0  0  0  0  0  0  0  0  0  0
   -2.7362    1.7614   -0.1779 C   0  0  0  0  0  0  0  0  0  0  0  0
   -2.7017    1.0219    0.7940 O   0  0  0  0  0  0  0  0  0  0  0  0
   -2.7567    3.0986   -0.0339 O   0  0  0  0  0  0  0  0  0  0  0  0
   -3.0652   -0.5724   -3.1357 N   0  0  0  0  0  0  0  0  0  0  0  0
    2.9141    1.7673    2.1259 H   0  0  0  0  0  0  0  0  0  0  0  0
    4.3706    2.4965    1.4143 H   0  0  0  0  0  0  0  0  0  0  0  0
    4.3197    0.7605    1.8035 H   0  0  0  0  0  0  0  0  0  0  0  0
    2.6299    2.1439   -0.3681 H   0  0  0  0  0  0  0  0  0  0  0  0
    4.0521    1.1429   -0.6526 H   0  0  0  0  0  0  0  0  0  0  0  0
    0.8866   -1.7670   -0.4542 H   0  0  0  0  0  0  0  0  0  0  0  0
   -0.0182   -1.1244    2.4338 H   0  0  0  0  0  0  0  0  0  0  0  0
   -1.1589   -2.7794    1.1237 H   0  0  0  0  0  0  0  0  0  0  0  0
    2.3019   -2.8537    1.4161 H   0  0  0  0  0  0  0  0  0  0  0  0
    2.4659   -1.3270    2.3158 H   0  0  0  0  0  0  0  0  0  0  0  0
    1.7633   -2.7598    3.0858 H   0  0  0  0  0  0  0  0  0  0  0  0
   -1.5583   -0.3619    0.5302 H   0  0  0  0  0  0  0  0  0  0  0  0
   -3.3988   -0.6669   -1.0679 H   0  0  0  0  0  0  0  0  0  0  0  0
   -3.6649    1.7315   -2.0659 H   0  0  0  0  0  0  0  0  0  0  0  0
   -1.8810    1.8039   -2.1190 H   0  0  0  0  0  0  0  0  0  0  0  0
   -2.6887    3.2547    0.9314 H   0  0  0  0  0  0  0  0  0  0  0  0
   -3.0184   -1.5918   -3.2003 H   0  0  0  0  0  0  0  0  0  0  0  0
   -2.3080   -0.2632   -3.7549 H   0  0  0  0  0  0  0  0  0  0  0  0
  1  2  1  0
  2  3  1  0
  3  4  1  0
  4  5  2  0
  4  6  1  0
  6  7  1  0
  7  8  1  0
  7  9  1  0
  6 10  1  0
 10 11  1  0
 11 12  2  0
 11 13  1  0
 13 14  1  0
 14 15  1  0
 15 16  2  0
 15 17  1  0
 13 18  1  0
  1 19  1  0
  1 20  1  0
  1 21  1  0
  2 22  1  0
  2 23  1  0
  6 24  1  0
  7 25  1  0
  8 26  1  0
  9 27  1  0
  9 28  1  0
  9 29  1  0
 10 30  1  0
 13 31  1  0
 14 32  1  0
 14 33  1  0
 17 34  1  0
 18 35  1  0
 18 36  1  0
M  END
