
     RDKit          3D

 25 25  0  0  0  0  0  0  0  0999 V2000
   -4.6131    0.6636   -0.2030 C   0  0  0  0  0  0  0  0  0  0  0  0
   -3.1128    0.7578   -0.4151 C   0  0  0  0  0  0  0  0  0  0  0  0
   -2.4932   -0.2627    0.3658 O   0  0  0  0  0  0  0  0  0  0  0  0
   -1.1300   -0.3431    0.3170 C   0  0  0  0  0  0  0  0  0  0  0  0
   -0.2828    0.4751   -0.4274 C   0  0  0  0  0  0  0  0  0  0  0  0
    1.1061    0.2831   -0.3848 C   0  0  0  0  0  0  0  0  0  0  0  0
    1.6642   -0.7194    0.4099 C   0  0  0  0  0  0  0  0  0  0  0  0
    0.8075   -1.5560    1.1319 C   0  0  0  0  0  0  0  0  0  0  0  0
   -0.5765   -1.3618    1.0922 C   0  0  0  0  0  0  0  0  0  0  0  0
    3.0449   -0.9880    0.4956 N   0  0  0  0  0  0  0  0  0  0  0  0
    4.1282   -0.2672    0.1214 C   0  0  0  0  0  0  0  0  0  0  0  0
    5.6297   -0.9780    0.0462 S   0  0  0  0  0  0  0  0  0  0  0  0
    3.9939    1.0461   -0.1461 N   0  0  0  0  0  0  0  0  0  0  0  0
   -4.8615    0.7905    0.8559 H   0  0  0  0  0  0  0  0  0  0  0  0
   -4.9835   -0.3228   -0.5014 H   0  0  0  0  0  0  0  0  0  0  0  0
   -5.1376    1.4282   -0.7830 H   0  0  0  0  0  0  0  0  0  0  0  0
   -2.7672    1.7467   -0.0924 H   0  0  0  0  0  0  0  0  0  0  0  0
   -2.8919    0.6096   -1.4785 H   0  0  0  0  0  0  0  0  0  0  0  0
   -0.6659    1.2638   -1.0663 H   0  0  0  0  0  0  0  0  0  0  0  0
    1.7199    0.9041   -1.0291 H   0  0  0  0  0  0  0  0  0  0  0  0
    1.2017   -2.3596    1.7486 H   0  0  0  0  0  0  0  0  0  0  0  0
   -1.2282   -2.0131    1.6698 H   0  0  0  0  0  0  0  0  0  0  0  0
    3.2916   -1.8994    0.8677 H   0  0  0  0  0  0  0  0  0  0  0  0
    4.8609    1.5526   -0.2848 H   0  0  0  0  0  0  0  0  0  0  0  0
    3.2956    1.5500    0.3855 H   0  0  0  0  0  0  0  0  0  0  0  0
  1  2  1  0
  2  3  1  0
  3  4  1  0
  4  5  2  0
  5  6  1  0
  6  7  2  0
  7  8  1  0
  8  9  2  0
  7 10  1  0
 10 11  1  0
 11 12  2  0
 11 13  1  0
  9  4  1  0
  1 14  1  0
  1 15  1  0
  1 16  1  0
  2 17  1  0
  2 18  1  0
  5 19  1  0
  6 20  1  0
  8 21  1  0
  9 22  1  0
 10 23  1  0
 13 24  1  0
 13 25  1  0
M  END
