
     RDKit          3D

 39 38  0  0  0  0  0  0  0  0999 V2000
   -3.2068    3.1143   -2.1537 C   0  0  0  0  0  0  0  0  0  0  0  0
   -3.2088    3.2248   -0.6361 C   0  0  0  0  0  0  0  0  0  0  0  0
   -3.6226    1.9210    0.0407 C   0  0  0  0  0  0  0  0  0  0  0  0
   -2.7396    0.8463   -0.3168 O   0  0  0  0  0  0  0  0  0  0  0  0
   -1.6011    0.7374    0.4200 C   0  0  0  0  0  0  0  0  0  0  0  0
   -1.2800    1.4782    1.3443 O   0  0  0  0  0  0  0  0  0  0  0  0
   -0.7410   -0.4282   -0.0675 C   0  0  0  0  0  0  0  0  0  0  0  0
   -1.4273   -1.7729    0.2661 C   0  0  0  0  0  0  0  0  0  0  0  0
   -0.9526   -2.8272   -0.5791 O   0  0  0  0  0  0  0  0  0  0  0  0
   -1.2650   -2.2113    1.7183 C   0  0  0  0  0  0  0  0  0  0  0  0
    0.6024   -0.2791    0.5151 N   0  0  0  0  0  0  0  0  0  0  0  0
    1.6882   -0.9987    0.0765 C   0  0  0  0  0  0  0  0  0  0  0  0
    1.5804   -1.9175   -0.7317 O   0  0  0  0  0  0  0  0  0  0  0  0
    3.0114   -0.6195    0.7752 C   0  0  0  0  0  0  0  0  0  0  0  0
    4.2139   -1.1579    0.0024 C   0  0  0  0  0  0  0  0  0  0  0  0
    4.3417   -0.4430   -1.3130 C   0  0  0  0  0  0  0  0  0  0  0  0
    3.7294    0.5490   -1.6728 O   0  0  0  0  0  0  0  0  0  0  0  0
    5.2753   -1.0016   -2.1070 O   0  0  0  0  0  0  0  0  0  0  0  0
    2.9906   -1.1880    2.1439 N   0  0  0  0  0  0  0  0  0  0  0  0
   -4.1936    2.8226   -2.5264 H   0  0  0  0  0  0  0  0  0  0  0  0
   -2.4764    2.3754   -2.4979 H   0  0  0  0  0  0  0  0  0  0  0  0
   -2.9466    4.0783   -2.6023 H   0  0  0  0  0  0  0  0  0  0  0  0
   -2.2039    3.5140   -0.3095 H   0  0  0  0  0  0  0  0  0  0  0  0
   -3.8955    4.0223   -0.3322 H   0  0  0  0  0  0  0  0  0  0  0  0
   -4.6273    1.6310   -0.2862 H   0  0  0  0  0  0  0  0  0  0  0  0
   -3.6674    2.0408    1.1296 H   0  0  0  0  0  0  0  0  0  0  0  0
   -0.6148   -0.3253   -1.1528 H   0  0  0  0  0  0  0  0  0  0  0  0
   -2.5005   -1.6960    0.0570 H   0  0  0  0  0  0  0  0  0  0  0  0
    0.0173   -2.7116   -0.6918 H   0  0  0  0  0  0  0  0  0  0  0  0
   -0.2220   -2.4490    1.9529 H   0  0  0  0  0  0  0  0  0  0  0  0
   -1.6208   -1.4445    2.4128 H   0  0  0  0  0  0  0  0  0  0  0  0
   -1.8342   -3.1302    1.8979 H   0  0  0  0  0  0  0  0  0  0  0  0
    0.7549    0.5385    1.1022 H   0  0  0  0  0  0  0  0  0  0  0  0
    3.0666    0.4724    0.8555 H   0  0  0  0  0  0  0  0  0  0  0  0
    5.1379   -0.9814    0.5652 H   0  0  0  0  0  0  0  0  0  0  0  0
    4.1148   -2.2331   -0.1859 H   0  0  0  0  0  0  0  0  0  0  0  0
    5.2630   -0.4584   -2.9230 H   0  0  0  0  0  0  0  0  0  0  0  0
    2.1395   -0.8864    2.6202 H   0  0  0  0  0  0  0  0  0  0  0  0
    2.9206   -2.2057    2.0770 H   0  0  0  0  0  0  0  0  0  0  0  0
  1  2  1  0
  2  3  1  0
  3  4  1  0
  4  5  1  0
  5  6  2  0
  5  7  1  0
  7  8  1  0
  8  9  1  0
  8 10  1  0
  7 11  1  0
 11 12  1  0
 12 13  2  0
 12 14  1  0
 14 15  1  0
 15 16  1  0
 16 17  2  0
 16 18  1  0
 14 19  1  0
  1 20  1  0
  1 21  1  0
  1 22  1  0
  2 23  1  0
  2 24  1  0
  3 25  1  0
  3 26  1  0
  7 27  1  0
  8 28  1  0
  9 29  1  0
 10 30  1  0
 10 31  1  0
 10 32  1  0
 11 33  1  0
 14 34  1  0
 15 35  1  0
 15 36  1  0
 18 37  1  0
 19 38  1  0
 19 39  1  0
M  END
