
     RDKit          3D

 39 38  0  0  0  0  0  0  0  0999 V2000
    5.8229    0.7630   -0.2858 O   0  0  0  0  0  0  0  0  0  0  0  0
    4.7815    0.2845    0.4221 C   0  0  0  0  0  0  0  0  0  0  0  0
    4.5903    0.6455    1.5708 O   0  0  0  0  0  0  0  0  0  0  0  0
    3.9992   -0.7454   -0.3449 C   0  0  0  0  0  0  0  0  0  0  0  0
    2.5830   -0.8665    0.2140 C   0  0  0  0  0  0  0  0  0  0  0  0
    1.7370    0.3709   -0.1617 C   0  0  0  0  0  0  0  0  0  0  0  0
    2.1972    1.4197   -0.6049 O   0  0  0  0  0  0  0  0  0  0  0  0
    0.3905    0.1848    0.0422 N   0  0  0  0  0  0  0  0  0  0  0  0
   -0.6179    1.1807   -0.3376 C   0  0  0  0  0  0  0  0  0  0  0  0
   -1.9479    0.9149    0.3842 C   0  0  0  0  0  0  0  0  0  0  0  0
   -2.9060    1.6780    0.3597 O   0  0  0  0  0  0  0  0  0  0  0  0
   -1.9462   -0.2988    1.0116 O   0  0  0  0  0  0  0  0  0  0  0  0
   -3.1548   -0.6646    1.7036 C   0  0  0  0  0  0  0  0  0  0  0  0
   -4.1345   -1.2920    0.7186 C   0  0  0  0  0  0  0  0  0  0  0  0
   -2.7654   -1.6626    2.7872 C   0  0  0  0  0  0  0  0  0  0  0  0
   -0.8741    1.2044   -1.8682 C   0  0  0  0  0  0  0  0  0  0  0  0
    0.3244    0.9879   -2.6298 O   0  0  0  0  0  0  0  0  0  0  0  0
   -1.4610    2.5306   -2.3426 C   0  0  0  0  0  0  0  0  0  0  0  0
    1.8945   -2.0778   -0.3121 N   0  0  0  0  0  0  0  0  0  0  0  0
    6.2315    1.4285    0.3069 H   0  0  0  0  0  0  0  0  0  0  0  0
    4.5390   -1.6947   -0.2518 H   0  0  0  0  0  0  0  0  0  0  0  0
    3.9726   -0.4618   -1.4038 H   0  0  0  0  0  0  0  0  0  0  0  0
    2.5933   -0.9350    1.3080 H   0  0  0  0  0  0  0  0  0  0  0  0
    0.0963   -0.7802    0.1861 H   0  0  0  0  0  0  0  0  0  0  0  0
   -0.2354    2.1494    0.0057 H   0  0  0  0  0  0  0  0  0  0  0  0
   -3.6031    0.2133    2.1844 H   0  0  0  0  0  0  0  0  0  0  0  0
   -4.4162   -0.5771   -0.0612 H   0  0  0  0  0  0  0  0  0  0  0  0
   -5.0456   -1.6258    1.2245 H   0  0  0  0  0  0  0  0  0  0  0  0
   -3.6812   -2.1490    0.2082 H   0  0  0  0  0  0  0  0  0  0  0  0
   -2.2770   -2.5430    2.3547 H   0  0  0  0  0  0  0  0  0  0  0  0
   -2.0446   -1.2117    3.4779 H   0  0  0  0  0  0  0  0  0  0  0  0
   -3.6386   -1.9902    3.3594 H   0  0  0  0  0  0  0  0  0  0  0  0
   -1.5593    0.3940   -2.1433 H   0  0  0  0  0  0  0  0  0  0  0  0
    1.0337    1.5194   -2.2099 H   0  0  0  0  0  0  0  0  0  0  0  0
   -1.5790    2.5255   -3.4320 H   0  0  0  0  0  0  0  0  0  0  0  0
   -2.4370    2.7349   -1.8964 H   0  0  0  0  0  0  0  0  0  0  0  0
   -0.7866    3.3612   -2.1065 H   0  0  0  0  0  0  0  0  0  0  0  0
    1.8613   -2.0155   -1.3332 H   0  0  0  0  0  0  0  0  0  0  0  0
    2.4631   -2.8994   -0.1043 H   0  0  0  0  0  0  0  0  0  0  0  0
  1  2  1  0
  2  3  2  0
  2  4  1  0
  4  5  1  0
  5  6  1  0
  6  7  2  0
  6  8  1  0
  8  9  1  0
  9 10  1  0
 10 11  2  0
 10 12  1  0
 12 13  1  0
 13 14  1  0
 13 15  1  0
  9 16  1  0
 16 17  1  0
 16 18  1  0
  5 19  1  0
  1 20  1  0
  4 21  1  0
  4 22  1  0
  5 23  1  0
  8 24  1  0
  9 25  1  0
 13 26  1  0
 14 27  1  0
 14 28  1  0
 14 29  1  0
 15 30  1  0
 15 31  1  0
 15 32  1  0
 16 33  1  0
 17 34  1  0
 18 35  1  0
 18 36  1  0
 18 37  1  0
 19 38  1  0
 19 39  1  0
M  END
