
     RDKit          3D

 42 41  0  0  0  0  0  0  0  0999 V2000
    5.7021    1.9984    2.2168 C   0  0  0  0  0  0  0  0  0  0  0  0
    4.8517    2.2648    0.9842 C   0  0  0  0  0  0  0  0  0  0  0  0
    3.7905    1.1942    0.7380 C   0  0  0  0  0  0  0  0  0  0  0  0
    2.6968    1.1681    1.8032 C   0  0  0  0  0  0  0  0  0  0  0  0
    1.7269    0.1533    1.4911 O   0  0  0  0  0  0  0  0  0  0  0  0
    0.7465    0.5095    0.6178 C   0  0  0  0  0  0  0  0  0  0  0  0
    0.6351    1.6111    0.0887 O   0  0  0  0  0  0  0  0  0  0  0  0
   -0.2333   -0.6421    0.3828 C   0  0  0  0  0  0  0  0  0  0  0  0
    0.4875   -1.8403   -0.2775 C   0  0  0  0  0  0  0  0  0  0  0  0
   -0.2231   -3.0639   -0.0583 O   0  0  0  0  0  0  0  0  0  0  0  0
    0.7212   -1.6781   -1.7755 C   0  0  0  0  0  0  0  0  0  0  0  0
   -1.3660   -0.1156   -0.3978 N   0  0  0  0  0  0  0  0  0  0  0  0
   -2.5422   -0.8074   -0.5690 C   0  0  0  0  0  0  0  0  0  0  0  0
   -2.6689   -1.9795   -0.2258 O   0  0  0  0  0  0  0  0  0  0  0  0
   -3.6274   -0.0111   -1.3260 C   0  0  0  0  0  0  0  0  0  0  0  0
   -4.9960   -0.6744   -1.1850 C   0  0  0  0  0  0  0  0  0  0  0  0
   -5.4791   -0.5607    0.2336 C   0  0  0  0  0  0  0  0  0  0  0  0
   -4.9784    0.0971    1.1305 O   0  0  0  0  0  0  0  0  0  0  0  0
   -6.6003   -1.2754    0.4479 O   0  0  0  0  0  0  0  0  0  0  0  0
   -3.2399    0.0567   -2.7557 N   0  0  0  0  0  0  0  0  0  0  0  0
    6.1627    1.0067    2.1706 H   0  0  0  0  0  0  0  0  0  0  0  0
    6.5038    2.7407    2.2869 H   0  0  0  0  0  0  0  0  0  0  0  0
    5.1097    2.0631    3.1340 H   0  0  0  0  0  0  0  0  0  0  0  0
    4.3768    3.2490    1.0773 H   0  0  0  0  0  0  0  0  0  0  0  0
    5.5111    2.3110    0.1089 H   0  0  0  0  0  0  0  0  0  0  0  0
    3.3353    1.3727   -0.2440 H   0  0  0  0  0  0  0  0  0  0  0  0
    4.2571    0.2033    0.6666 H   0  0  0  0  0  0  0  0  0  0  0  0
    3.1170    0.9015    2.7778 H   0  0  0  0  0  0  0  0  0  0  0  0
    2.2132    2.1462    1.9172 H   0  0  0  0  0  0  0  0  0  0  0  0
   -0.6448   -0.9370    1.3560 H   0  0  0  0  0  0  0  0  0  0  0  0
    1.4636   -1.9874    0.1980 H   0  0  0  0  0  0  0  0  0  0  0  0
   -1.1816   -2.8813   -0.1789 H   0  0  0  0  0  0  0  0  0  0  0  0
    1.2736   -0.7604   -1.9994 H   0  0  0  0  0  0  0  0  0  0  0  0
    1.2969   -2.5283   -2.1578 H   0  0  0  0  0  0  0  0  0  0  0  0
   -0.2213   -1.6739   -2.3327 H   0  0  0  0  0  0  0  0  0  0  0  0
   -1.3592    0.8862   -0.5774 H   0  0  0  0  0  0  0  0  0  0  0  0
   -3.6542    1.0099   -0.9280 H   0  0  0  0  0  0  0  0  0  0  0  0
   -4.9520   -1.7353   -1.4577 H   0  0  0  0  0  0  0  0  0  0  0  0
   -5.7301   -0.1739   -1.8272 H   0  0  0  0  0  0  0  0  0  0  0  0
   -6.7944   -1.1467    1.4001 H   0  0  0  0  0  0  0  0  0  0  0  0
   -3.1972   -0.8930   -3.1317 H   0  0  0  0  0  0  0  0  0  0  0  0
   -2.2897    0.4222   -2.8288 H   0  0  0  0  0  0  0  0  0  0  0  0
  1  2  1  0
  2  3  1  0
  3  4  1  0
  4  5  1  0
  5  6  1  0
  6  7  2  0
  6  8  1  0
  8  9  1  0
  9 10  1  0
  9 11  1  0
  8 12  1  0
 12 13  1  0
 13 14  2  0
 13 15  1  0
 15 16  1  0
 16 17  1  0
 17 18  2  0
 17 19  1  0
 15 20  1  0
  1 21  1  0
  1 22  1  0
  1 23  1  0
  2 24  1  0
  2 25  1  0
  3 26  1  0
  3 27  1  0
  4 28  1  0
  4 29  1  0
  8 30  1  0
  9 31  1  0
 10 32  1  0
 11 33  1  0
 11 34  1  0
 11 35  1  0
 12 36  1  0
 15 37  1  0
 16 38  1  0
 16 39  1  0
 19 40  1  0
 20 41  1  0
 20 42  1  0
M  END
