
     RDKit          3D

 42 41  0  0  0  0  0  0  0  0999 V2000
   -2.8572    2.9202   -1.8403 C   0  0  0  0  0  0  0  0  0  0  0  0
   -1.8113    2.1548   -1.0313 C   0  0  0  0  0  0  0  0  0  0  0  0
   -2.3459    0.7737   -0.6325 C   0  0  0  0  0  0  0  0  0  0  0  0
   -1.2666   -0.0013   -0.0903 O   0  0  0  0  0  0  0  0  0  0  0  0
   -1.6489   -1.1992    0.4410 C   0  0  0  0  0  0  0  0  0  0  0  0
   -2.8117   -1.5819    0.5189 O   0  0  0  0  0  0  0  0  0  0  0  0
   -0.4507   -2.0198    0.9401 C   0  0  0  0  0  0  0  0  0  0  0  0
   -0.5923   -2.2304    2.4595 C   0  0  0  0  0  0  0  0  0  0  0  0
   -0.2010   -1.0536    3.1757 O   0  0  0  0  0  0  0  0  0  0  0  0
    0.2571   -3.3994    2.9532 C   0  0  0  0  0  0  0  0  0  0  0  0
    0.8485   -1.4167    0.6092 N   0  0  0  0  0  0  0  0  0  0  0  0
    1.4106   -1.6184   -0.6314 C   0  0  0  0  0  0  0  0  0  0  0  0
    0.9480   -2.4152   -1.4474 O   0  0  0  0  0  0  0  0  0  0  0  0
    2.6842   -0.7829   -0.9215 C   0  0  0  0  0  0  0  0  0  0  0  0
    2.3222    0.6571   -1.2915 C   0  0  0  0  0  0  0  0  0  0  0  0
    2.1108    1.4882   -0.0581 C   0  0  0  0  0  0  0  0  0  0  0  0
    1.8624    1.0724    1.0633 O   0  0  0  0  0  0  0  0  0  0  0  0
    2.1840    2.8061   -0.3063 O   0  0  0  0  0  0  0  0  0  0  0  0
    3.4095   -1.4159   -2.0532 N   0  0  0  0  0  0  0  0  0  0  0  0
   -1.4037    2.9637    0.2021 C   0  0  0  0  0  0  0  0  0  0  0  0
   -3.1171    2.3734   -2.7542 H   0  0  0  0  0  0  0  0  0  0  0  0
   -3.7774    3.0713   -1.2629 H   0  0  0  0  0  0  0  0  0  0  0  0
   -2.4770    3.9048   -2.1355 H   0  0  0  0  0  0  0  0  0  0  0  0
   -0.9152    2.0194   -1.6506 H   0  0  0  0  0  0  0  0  0  0  0  0
   -2.7329    0.2517   -1.5149 H   0  0  0  0  0  0  0  0  0  0  0  0
   -3.1492    0.8773    0.1075 H   0  0  0  0  0  0  0  0  0  0  0  0
   -0.5233   -2.9835    0.4211 H   0  0  0  0  0  0  0  0  0  0  0  0
   -1.6381   -2.4339    2.7218 H   0  0  0  0  0  0  0  0  0  0  0  0
    0.7697   -1.0043    3.1562 H   0  0  0  0  0  0  0  0  0  0  0  0
   -0.0197   -4.3326    2.4501 H   0  0  0  0  0  0  0  0  0  0  0  0
    0.1303   -3.5338    4.0305 H   0  0  0  0  0  0  0  0  0  0  0  0
    1.3204   -3.2167    2.7908 H   0  0  0  0  0  0  0  0  0  0  0  0
    1.0422   -0.5191    1.0566 H   0  0  0  0  0  0  0  0  0  0  0  0
    3.3390   -0.8235   -0.0419 H   0  0  0  0  0  0  0  0  0  0  0  0
    3.1519    1.1150   -1.8451 H   0  0  0  0  0  0  0  0  0  0  0  0
    1.4174    0.7062   -1.9092 H   0  0  0  0  0  0  0  0  0  0  0  0
    2.0331    3.2481    0.5558 H   0  0  0  0  0  0  0  0  0  0  0  0
    3.6680   -2.3643   -1.7695 H   0  0  0  0  0  0  0  0  0  0  0  0
    2.7246   -1.5797   -2.8004 H   0  0  0  0  0  0  0  0  0  0  0  0
   -0.6563    2.4325    0.7974 H   0  0  0  0  0  0  0  0  0  0  0  0
   -0.9727    3.9254   -0.0932 H   0  0  0  0  0  0  0  0  0  0  0  0
   -2.2657    3.1646    0.8471 H   0  0  0  0  0  0  0  0  0  0  0  0
  1  2  1  0
  2  3  1  0
  3  4  1  0
  4  5  1  0
  5  6  2  0
  5  7  1  0
  7  8  1  0
  8  9  1  0
  8 10  1  0
  7 11  1  0
 11 12  1  0
 12 13  2  0
 12 14  1  0
 14 15  1  0
 15 16  1  0
 16 17  2  0
 16 18  1  0
 14 19  1  0
  2 20  1  0
  1 21  1  0
  1 22  1  0
  1 23  1  0
  2 24  1  0
  3 25  1  0
  3 26  1  0
  7 27  1  0
  8 28  1  0
  9 29  1  0
 10 30  1  0
 10 31  1  0
 10 32  1  0
 11 33  1  0
 14 34  1  0
 15 35  1  0
 15 36  1  0
 18 37  1  0
 19 38  1  0
 19 39  1  0
 20 40  1  0
 20 41  1  0
 20 42  1  0
M  END
