
     RDKit          3D

 46 46  0  0  0  0  0  0  0  0999 V2000
   -0.2126   -4.0137    0.8192 C   0  0  0  0  0  0  0  0  0  0  0  0
    0.7295   -2.8510    0.5308 C   0  0  0  0  0  0  0  0  0  0  0  0
    0.2428   -1.8981   -0.5854 C   0  0  0  0  0  0  0  0  0  0  0  0
   -1.1133   -1.2671   -0.2326 C   0  0  0  0  0  0  0  0  0  0  0  0
   -2.1597   -1.8972   -0.1295 O   0  0  0  0  0  0  0  0  0  0  0  0
   -1.0017    0.0806   -0.0391 O   0  0  0  0  0  0  0  0  0  0  0  0
   -2.2027    0.7790    0.3320 C   0  0  0  0  0  0  0  0  0  0  0  0
   -1.7785    2.0487    1.0748 C   0  0  0  0  0  0  0  0  0  0  0  0
   -2.9738    2.9345    1.4086 C   0  0  0  0  0  0  0  0  0  0  0  0
   -3.7876    3.2702    0.1618 C   0  0  0  0  0  0  0  0  0  0  0  0
   -4.2070    2.0123   -0.5942 C   0  0  0  0  0  0  0  0  0  0  0  0
   -3.0082    1.1282   -0.9226 C   0  0  0  0  0  0  0  0  0  0  0  0
    1.2515   -0.8610   -0.8506 N   0  0  0  0  0  0  0  0  0  0  0  0
    2.4326   -1.1314   -1.4887 C   0  0  0  0  0  0  0  0  0  0  0  0
    2.6740   -2.2246   -1.9994 O   0  0  0  0  0  0  0  0  0  0  0  0
    3.4480    0.0362   -1.5085 C   0  0  0  0  0  0  0  0  0  0  0  0
    4.1726    0.1261   -0.1644 C   0  0  0  0  0  0  0  0  0  0  0  0
    3.3028    0.7630    0.8818 C   0  0  0  0  0  0  0  0  0  0  0  0
    2.1974    1.2534    0.7170 O   0  0  0  0  0  0  0  0  0  0  0  0
    3.8745    0.7459    2.1004 O   0  0  0  0  0  0  0  0  0  0  0  0
    4.4355   -0.2124   -2.5891 N   0  0  0  0  0  0  0  0  0  0  0  0
    0.9688   -2.1222    1.7435 O   0  0  0  0  0  0  0  0  0  0  0  0
   -0.4940   -4.5383   -0.0984 H   0  0  0  0  0  0  0  0  0  0  0  0
    0.2751   -4.7319    1.4881 H   0  0  0  0  0  0  0  0  0  0  0  0
   -1.1155   -3.6845    1.3424 H   0  0  0  0  0  0  0  0  0  0  0  0
    1.6967   -3.2732    0.2335 H   0  0  0  0  0  0  0  0  0  0  0  0
    0.1057   -2.4543   -1.5206 H   0  0  0  0  0  0  0  0  0  0  0  0
   -2.8044    0.1632    1.0135 H   0  0  0  0  0  0  0  0  0  0  0  0
   -1.0560    2.6099    0.4675 H   0  0  0  0  0  0  0  0  0  0  0  0
   -1.2441    1.7768    1.9934 H   0  0  0  0  0  0  0  0  0  0  0  0
   -2.6272    3.8594    1.8829 H   0  0  0  0  0  0  0  0  0  0  0  0
   -3.6153    2.4227    2.1364 H   0  0  0  0  0  0  0  0  0  0  0  0
   -4.6769    3.8444    0.4450 H   0  0  0  0  0  0  0  0  0  0  0  0
   -3.1913    3.9103   -0.5002 H   0  0  0  0  0  0  0  0  0  0  0  0
   -4.7227    2.2933   -1.5193 H   0  0  0  0  0  0  0  0  0  0  0  0
   -4.9236    1.4442    0.0116 H   0  0  0  0  0  0  0  0  0  0  0  0
   -2.3585    1.6342   -1.6486 H   0  0  0  0  0  0  0  0  0  0  0  0
   -3.3493    0.2128   -1.4199 H   0  0  0  0  0  0  0  0  0  0  0  0
    1.1548    0.0013   -0.3102 H   0  0  0  0  0  0  0  0  0  0  0  0
    2.9171    0.9648   -1.7471 H   0  0  0  0  0  0  0  0  0  0  0  0
    4.4663   -0.8705    0.1857 H   0  0  0  0  0  0  0  0  0  0  0  0
    5.0691    0.7507   -0.2572 H   0  0  0  0  0  0  0  0  0  0  0  0
    3.2111    1.1597    2.6919 H   0  0  0  0  0  0  0  0  0  0  0  0
    4.7857   -1.1686   -2.4678 H   0  0  0  0  0  0  0  0  0  0  0  0
    3.9233   -0.2642   -3.4728 H   0  0  0  0  0  0  0  0  0  0  0  0
    1.2889   -2.7618    2.4043 H   0  0  0  0  0  0  0  0  0  0  0  0
  1  2  1  0
  2  3  1  0
  3  4  1  0
  4  5  2  0
  4  6  1  0
  6  7  1  0
  7  8  1  0
  8  9  1  0
  9 10  1  0
 10 11  1  0
 11 12  1  0
  3 13  1  0
 13 14  1  0
 14 15  2  0
 14 16  1  0
 16 17  1  0
 17 18  1  0
 18 19  2  0
 18 20  1  0
 16 21  1  0
  2 22  1  0
 12  7  1  0
  1 23  1  0
  1 24  1  0
  1 25  1  0
  2 26  1  0
  3 27  1  0
  7 28  1  0
  8 29  1  0
  8 30  1  0
  9 31  1  0
  9 32  1  0
 10 33  1  0
 10 34  1  0
 11 35  1  0
 11 36  1  0
 12 37  1  0
 12 38  1  0
 13 39  1  0
 16 40  1  0
 17 41  1  0
 17 42  1  0
 20 43  1  0
 21 44  1  0
 21 45  1  0
 22 46  1  0
M  END
