
     RDKit          3D

 38 37  0  0  0  0  0  0  0  0999 V2000
   -4.6806    0.3791    1.1021 C   0  0  0  0  0  0  0  0  0  0  0  0
   -4.1863    0.1619   -0.3212 C   0  0  0  0  0  0  0  0  0  0  0  0
   -2.7823    0.7167   -0.5384 C   0  0  0  0  0  0  0  0  0  0  0  0
   -1.8633    0.0038    0.2980 O   0  0  0  0  0  0  0  0  0  0  0  0
   -0.5708    0.4247    0.2015 C   0  0  0  0  0  0  0  0  0  0  0  0
   -0.1840    1.3495   -0.5060 O   0  0  0  0  0  0  0  0  0  0  0  0
    0.3335   -0.4034    1.1271 C   0  0  0  0  0  0  0  0  0  0  0  0
    1.6644   -0.4641    0.5165 N   0  0  0  0  0  0  0  0  0  0  0  0
    1.9218   -1.3581   -0.4997 C   0  0  0  0  0  0  0  0  0  0  0  0
    1.1471   -2.2632   -0.8049 O   0  0  0  0  0  0  0  0  0  0  0  0
    3.2599   -1.1288   -1.2433 C   0  0  0  0  0  0  0  0  0  0  0  0
    3.0714   -0.0979   -2.3576 C   0  0  0  0  0  0  0  0  0  0  0  0
    2.9119    1.2850   -1.7939 C   0  0  0  0  0  0  0  0  0  0  0  0
    3.0784    1.6198   -0.6308 O   0  0  0  0  0  0  0  0  0  0  0  0
    2.5422    2.1788   -2.7288 O   0  0  0  0  0  0  0  0  0  0  0  0
    3.7068   -2.4182   -1.8261 N   0  0  0  0  0  0  0  0  0  0  0  0
    0.4331    0.2384    2.5135 C   0  0  0  0  0  0  0  0  0  0  0  0
   -0.8531    0.1292    3.3197 C   0  0  0  0  0  0  0  0  0  0  0  0
   -4.6896    1.4441    1.3549 H   0  0  0  0  0  0  0  0  0  0  0  0
   -4.0481   -0.1417    1.8280 H   0  0  0  0  0  0  0  0  0  0  0  0
   -5.7002   -0.0043    1.2092 H   0  0  0  0  0  0  0  0  0  0  0  0
   -4.8786    0.6427   -1.0210 H   0  0  0  0  0  0  0  0  0  0  0  0
   -4.1926   -0.9140   -0.5304 H   0  0  0  0  0  0  0  0  0  0  0  0
   -2.7565    1.7848   -0.2930 H   0  0  0  0  0  0  0  0  0  0  0  0
   -2.4968    0.5783   -1.5875 H   0  0  0  0  0  0  0  0  0  0  0  0
   -0.0581   -1.4252    1.1914 H   0  0  0  0  0  0  0  0  0  0  0  0
    2.1797    0.4178    0.4817 H   0  0  0  0  0  0  0  0  0  0  0  0
    4.0193   -0.8057   -0.5221 H   0  0  0  0  0  0  0  0  0  0  0  0
    3.9493   -0.0810   -3.0137 H   0  0  0  0  0  0  0  0  0  0  0  0
    2.1829   -0.3352   -2.9546 H   0  0  0  0  0  0  0  0  0  0  0  0
    2.3887    3.0116   -2.2349 H   0  0  0  0  0  0  0  0  0  0  0  0
    2.9167   -2.8019   -2.3560 H   0  0  0  0  0  0  0  0  0  0  0  0
    3.8221   -3.0860   -1.0605 H   0  0  0  0  0  0  0  0  0  0  0  0
    1.2362   -0.2495    3.0803 H   0  0  0  0  0  0  0  0  0  0  0  0
    0.7113    1.2962    2.4258 H   0  0  0  0  0  0  0  0  0  0  0  0
   -1.6586    0.7158    2.8689 H   0  0  0  0  0  0  0  0  0  0  0  0
   -0.6944    0.5114    4.3332 H   0  0  0  0  0  0  0  0  0  0  0  0
   -1.1828   -0.9113    3.3982 H   0  0  0  0  0  0  0  0  0  0  0  0
  1  2  1  0
  2  3  1  0
  3  4  1  0
  4  5  1  0
  5  6  2  0
  5  7  1  0
  7  8  1  0
  8  9  1  0
  9 10  2  0
  9 11  1  0
 11 12  1  0
 12 13  1  0
 13 14  2  0
 13 15  1  0
 11 16  1  0
  7 17  1  0
 17 18  1  0
  1 19  1  0
  1 20  1  0
  1 21  1  0
  2 22  1  0
  2 23  1  0
  3 24  1  0
  3 25  1  0
  7 26  1  0
  8 27  1  0
 11 28  1  0
 12 29  1  0
 12 30  1  0
 15 31  1  0
 16 32  1  0
 16 33  1  0
 17 34  1  0
 17 35  1  0
 18 36  1  0
 18 37  1  0
 18 38  1  0
M  END
