
     RDKit          3D

 26 25  0  0  0  0  0  0  0  0999 V2000
   -3.7374    1.8086   -0.8406 C   0  0  0  0  0  0  0  0  0  0  0  0
   -3.2084    1.1458    0.3084 O   0  0  0  0  0  0  0  0  0  0  0  0
   -1.8544    0.9827    0.2795 C   0  0  0  0  0  0  0  0  0  0  0  0
   -1.1146    1.3903   -0.6093 O   0  0  0  0  0  0  0  0  0  0  0  0
   -1.3929    0.2633    1.5435 C   0  0  0  0  0  0  0  0  0  0  0  0
    0.0024   -0.1295    1.4298 N   0  0  0  0  0  0  0  0  0  0  0  0
    0.3387   -1.2973    0.7821 C   0  0  0  0  0  0  0  0  0  0  0  0
   -0.4913   -2.1488    0.4670 O   0  0  0  0  0  0  0  0  0  0  0  0
    1.8464   -1.4554    0.4690 C   0  0  0  0  0  0  0  0  0  0  0  0
    2.1907   -0.7315   -0.8339 C   0  0  0  0  0  0  0  0  0  0  0  0
    2.2518    0.7562   -0.6317 C   0  0  0  0  0  0  0  0  0  0  0  0
    2.0851    1.3591    0.4177 O   0  0  0  0  0  0  0  0  0  0  0  0
    2.5158    1.4149   -1.7753 O   0  0  0  0  0  0  0  0  0  0  0  0
    2.1525   -2.9015    0.3324 N   0  0  0  0  0  0  0  0  0  0  0  0
   -3.5120    1.2415   -1.7493 H   0  0  0  0  0  0  0  0  0  0  0  0
   -3.3424    2.8269   -0.9101 H   0  0  0  0  0  0  0  0  0  0  0  0
   -4.8237    1.8653   -0.7289 H   0  0  0  0  0  0  0  0  0  0  0  0
   -1.4744    0.9501    2.3902 H   0  0  0  0  0  0  0  0  0  0  0  0
   -2.0137   -0.6222    1.7086 H   0  0  0  0  0  0  0  0  0  0  0  0
    0.6843    0.6298    1.3904 H   0  0  0  0  0  0  0  0  0  0  0  0
    2.4295   -1.0678    1.3123 H   0  0  0  0  0  0  0  0  0  0  0  0
    3.1779   -1.0480   -1.1913 H   0  0  0  0  0  0  0  0  0  0  0  0
    1.4444   -0.9460   -1.6078 H   0  0  0  0  0  0  0  0  0  0  0  0
    2.4668    2.3646   -1.5389 H   0  0  0  0  0  0  0  0  0  0  0  0
    1.8985   -3.3597    1.2105 H   0  0  0  0  0  0  0  0  0  0  0  0
    1.4803   -3.2914   -0.3373 H   0  0  0  0  0  0  0  0  0  0  0  0
  1  2  1  0
  2  3  1  0
  3  4  2  0
  3  5  1  0
  5  6  1  0
  6  7  1  0
  7  8  2  0
  7  9  1  0
  9 10  1  0
 10 11  1  0
 11 12  2  0
 11 13  1  0
  9 14  1  0
  1 15  1  0
  1 16  1  0
  1 17  1  0
  5 18  1  0
  5 19  1  0
  6 20  1  0
  9 21  1  0
 10 22  1  0
 10 23  1  0
 13 24  1  0
 14 25  1  0
 14 26  1  0
M  END
