
     RDKit          3D

 32 31  0  0  0  0  0  0  0  0999 V2000
   -3.8041   -0.5318   -3.4289 C   0  0  0  0  0  0  0  0  0  0  0  0
   -2.8120    0.3699   -2.7165 C   0  0  0  0  0  0  0  0  0  0  0  0
   -2.9724    0.3010   -1.2020 C   0  0  0  0  0  0  0  0  0  0  0  0
   -2.0549    1.2069   -0.5695 O   0  0  0  0  0  0  0  0  0  0  0  0
   -0.8120    0.7082   -0.3106 C   0  0  0  0  0  0  0  0  0  0  0  0
   -0.4225   -0.4143   -0.6125 O   0  0  0  0  0  0  0  0  0  0  0  0
    0.0414    1.7788    0.3632 C   0  0  0  0  0  0  0  0  0  0  0  0
    1.2883    1.2109    0.8492 N   0  0  0  0  0  0  0  0  0  0  0  0
    1.3264    0.5758    2.0704 C   0  0  0  0  0  0  0  0  0  0  0  0
    0.4060    0.6380    2.8843 O   0  0  0  0  0  0  0  0  0  0  0  0
    2.6169   -0.2351    2.3407 C   0  0  0  0  0  0  0  0  0  0  0  0
    2.5046   -1.6258    1.7137 C   0  0  0  0  0  0  0  0  0  0  0  0
    2.6947   -1.5700    0.2242 C   0  0  0  0  0  0  0  0  0  0  0  0
    2.9309   -0.5766   -0.4465 O   0  0  0  0  0  0  0  0  0  0  0  0
    2.5703   -2.7808   -0.3505 O   0  0  0  0  0  0  0  0  0  0  0  0
    2.7969   -0.3627    3.8087 N   0  0  0  0  0  0  0  0  0  0  0  0
   -3.6708   -0.4603   -4.5128 H   0  0  0  0  0  0  0  0  0  0  0  0
   -4.8340   -0.2451   -3.1939 H   0  0  0  0  0  0  0  0  0  0  0  0
   -3.6628   -1.5775   -3.1376 H   0  0  0  0  0  0  0  0  0  0  0  0
   -1.7909    0.0894   -2.9995 H   0  0  0  0  0  0  0  0  0  0  0  0
   -2.9429    1.4057   -3.0515 H   0  0  0  0  0  0  0  0  0  0  0  0
   -2.8429   -0.7200   -0.8234 H   0  0  0  0  0  0  0  0  0  0  0  0
   -3.9802    0.6217   -0.9165 H   0  0  0  0  0  0  0  0  0  0  0  0
   -0.5137    2.2193    1.1968 H   0  0  0  0  0  0  0  0  0  0  0  0
    0.2939    2.5448   -0.3749 H   0  0  0  0  0  0  0  0  0  0  0  0
    1.9404    0.8764    0.1379 H   0  0  0  0  0  0  0  0  0  0  0  0
    3.4763    0.3179    1.9447 H   0  0  0  0  0  0  0  0  0  0  0  0
    3.2867   -2.2828    2.1126 H   0  0  0  0  0  0  0  0  0  0  0  0
    1.5238   -2.0694    1.9215 H   0  0  0  0  0  0  0  0  0  0  0  0
    2.6487   -2.6150   -1.3130 H   0  0  0  0  0  0  0  0  0  0  0  0
    2.8543    0.5801    4.2002 H   0  0  0  0  0  0  0  0  0  0  0  0
    1.9154   -0.7212    4.1918 H   0  0  0  0  0  0  0  0  0  0  0  0
  1  2  1  0
  2  3  1  0
  3  4  1  0
  4  5  1  0
  5  6  2  0
  5  7  1  0
  7  8  1  0
  8  9  1  0
  9 10  2  0
  9 11  1  0
 11 12  1  0
 12 13  1  0
 13 14  2  0
 13 15  1  0
 11 16  1  0
  1 17  1  0
  1 18  1  0
  1 19  1  0
  2 20  1  0
  2 21  1  0
  3 22  1  0
  3 23  1  0
  7 24  1  0
  7 25  1  0
  8 26  1  0
 11 27  1  0
 12 28  1  0
 12 29  1  0
 15 30  1  0
 16 31  1  0
 16 32  1  0
M  END
