
     RDKit          3D

 39 39  0  0  0  0  0  0  0  0999 V2000
    4.0421   -1.4606   -1.6074 N   0  0  0  0  0  0  0  0  0  0  0  0
    3.3508   -0.3147   -0.9657 C   0  0  0  0  0  0  0  0  0  0  0  0
    2.2477    0.1947   -1.9254 C   0  0  0  0  0  0  0  0  0  0  0  0
    1.7576   -0.5170   -2.8001 O   0  0  0  0  0  0  0  0  0  0  0  0
    1.8565    1.4965   -1.7136 N   0  0  0  0  0  0  0  0  0  0  0  0
    0.7014    2.0444   -2.4085 C   0  0  0  0  0  0  0  0  0  0  0  0
   -0.6463    1.7248   -1.7611 C   0  0  0  0  0  0  0  0  0  0  0  0
   -1.7156    2.1305   -2.2022 O   0  0  0  0  0  0  0  0  0  0  0  0
   -0.5078    0.9607   -0.6397 O   0  0  0  0  0  0  0  0  0  0  0  0
   -1.7280    0.5694    0.0162 C   0  0  0  0  0  0  0  0  0  0  0  0
   -2.3524   -0.6302   -0.7038 C   0  0  0  0  0  0  0  0  0  0  0  0
   -3.5587   -1.1761    0.0543 C   0  0  0  0  0  0  0  0  0  0  0  0
   -3.2075   -1.5211    1.4990 C   0  0  0  0  0  0  0  0  0  0  0  0
   -2.5737   -0.3363    2.2229 C   0  0  0  0  0  0  0  0  0  0  0  0
   -1.3691    0.2026    1.4591 C   0  0  0  0  0  0  0  0  0  0  0  0
    2.7308   -0.7638    0.3586 C   0  0  0  0  0  0  0  0  0  0  0  0
    2.4614    0.4087    1.2591 C   0  0  0  0  0  0  0  0  0  0  0  0
    2.4792    1.5899    0.9504 O   0  0  0  0  0  0  0  0  0  0  0  0
    2.1373    0.0291    2.5091 O   0  0  0  0  0  0  0  0  0  0  0  0
    3.3195   -2.1274   -1.9019 H   0  0  0  0  0  0  0  0  0  0  0  0
    4.4326   -1.1333   -2.4945 H   0  0  0  0  0  0  0  0  0  0  0  0
    4.0899    0.4811   -0.8179 H   0  0  0  0  0  0  0  0  0  0  0  0
    2.0953    1.9158   -0.8133 H   0  0  0  0  0  0  0  0  0  0  0  0
    0.8248    3.1318   -2.4091 H   0  0  0  0  0  0  0  0  0  0  0  0
    0.6863    1.6698   -3.4363 H   0  0  0  0  0  0  0  0  0  0  0  0
   -2.4309    1.4126    0.0368 H   0  0  0  0  0  0  0  0  0  0  0  0
   -1.5987   -1.4187   -0.8272 H   0  0  0  0  0  0  0  0  0  0  0  0
   -2.6539   -0.3494   -1.7194 H   0  0  0  0  0  0  0  0  0  0  0  0
   -4.3628   -0.4309    0.0444 H   0  0  0  0  0  0  0  0  0  0  0  0
   -3.9424   -2.0675   -0.4547 H   0  0  0  0  0  0  0  0  0  0  0  0
   -4.1096   -1.8406    2.0333 H   0  0  0  0  0  0  0  0  0  0  0  0
   -2.5116   -2.3691    1.5100 H   0  0  0  0  0  0  0  0  0  0  0  0
   -2.2660   -0.6401    3.2294 H   0  0  0  0  0  0  0  0  0  0  0  0
   -3.3179    0.4609    2.3403 H   0  0  0  0  0  0  0  0  0  0  0  0
   -0.9586    1.0801    1.9734 H   0  0  0  0  0  0  0  0  0  0  0  0
   -0.5659   -0.5454    1.4604 H   0  0  0  0  0  0  0  0  0  0  0  0
    3.4248   -1.4265    0.8909 H   0  0  0  0  0  0  0  0  0  0  0  0
    1.7870   -1.2968    0.1964 H   0  0  0  0  0  0  0  0  0  0  0  0
    1.9525    0.8620    2.9908 H   0  0  0  0  0  0  0  0  0  0  0  0
  1  2  1  0
  2  3  1  0
  3  4  2  0
  3  5  1  0
  5  6  1  0
  6  7  1  0
  7  8  2  0
  7  9  1  0
  9 10  1  0
 10 11  1  0
 11 12  1  0
 12 13  1  0
 13 14  1  0
 14 15  1  0
  2 16  1  0
 16 17  1  0
 17 18  2  0
 17 19  1  0
 15 10  1  0
  1 20  1  0
  1 21  1  0
  2 22  1  0
  5 23  1  0
  6 24  1  0
  6 25  1  0
 10 26  1  0
 11 27  1  0
 11 28  1  0
 12 29  1  0
 12 30  1  0
 13 31  1  0
 13 32  1  0
 14 33  1  0
 14 34  1  0
 15 35  1  0
 15 36  1  0
 16 37  1  0
 16 38  1  0
 19 39  1  0
M  END
