
     RDKit          3D

 41 40  0  0  0  0  0  0  0  0999 V2000
    3.4361   -2.1746    2.1431 C   0  0  0  0  0  0  0  0  0  0  0  0
    2.4119   -1.2224    1.5528 C   0  0  0  0  0  0  0  0  0  0  0  0
    1.9086   -1.7041    0.1971 C   0  0  0  0  0  0  0  0  0  0  0  0
    0.9024   -0.8054   -0.2922 O   0  0  0  0  0  0  0  0  0  0  0  0
    1.3514    0.2565   -1.0245 C   0  0  0  0  0  0  0  0  0  0  0  0
    2.5317    0.4884   -1.2600 O   0  0  0  0  0  0  0  0  0  0  0  0
    0.1906    1.1577   -1.4934 C   0  0  0  0  0  0  0  0  0  0  0  0
   -1.1279    0.6767   -1.0733 N   0  0  0  0  0  0  0  0  0  0  0  0
   -1.7690   -0.3112   -1.7884 C   0  0  0  0  0  0  0  0  0  0  0  0
   -1.3898   -0.6943   -2.8936 O   0  0  0  0  0  0  0  0  0  0  0  0
   -3.0053   -0.9201   -1.0836 C   0  0  0  0  0  0  0  0  0  0  0  0
   -2.5686   -2.0261   -0.1210 C   0  0  0  0  0  0  0  0  0  0  0  0
   -2.0111   -1.4549    1.1521 C   0  0  0  0  0  0  0  0  0  0  0  0
   -1.8334   -0.2747    1.4112 O   0  0  0  0  0  0  0  0  0  0  0  0
   -1.6829   -2.4117    2.0405 O   0  0  0  0  0  0  0  0  0  0  0  0
   -3.9063   -1.4875   -2.1173 N   0  0  0  0  0  0  0  0  0  0  0  0
    0.4173    2.6073   -1.0367 C   0  0  0  0  0  0  0  0  0  0  0  0
    0.4425    2.7949    0.4851 C   0  0  0  0  0  0  0  0  0  0  0  0
    0.7203    4.2439    0.8573 C   0  0  0  0  0  0  0  0  0  0  0  0
    3.7822   -1.8059    3.1138 H   0  0  0  0  0  0  0  0  0  0  0  0
    3.0061   -3.1703    2.2915 H   0  0  0  0  0  0  0  0  0  0  0  0
    4.3066   -2.2702    1.4863 H   0  0  0  0  0  0  0  0  0  0  0  0
    2.8509   -0.2226    1.4560 H   0  0  0  0  0  0  0  0  0  0  0  0
    1.5644   -1.1131    2.2403 H   0  0  0  0  0  0  0  0  0  0  0  0
    1.4318   -2.6850    0.3008 H   0  0  0  0  0  0  0  0  0  0  0  0
    2.7247   -1.8201   -0.5260 H   0  0  0  0  0  0  0  0  0  0  0  0
    0.2167    1.1299   -2.5899 H   0  0  0  0  0  0  0  0  0  0  0  0
   -1.3190    0.6961   -0.0713 H   0  0  0  0  0  0  0  0  0  0  0  0
   -3.5505   -0.1239   -0.5637 H   0  0  0  0  0  0  0  0  0  0  0  0
   -3.4324   -2.6425    0.1565 H   0  0  0  0  0  0  0  0  0  0  0  0
   -1.8048   -2.6665   -0.5773 H   0  0  0  0  0  0  0  0  0  0  0  0
   -1.3426   -1.9303    2.8234 H   0  0  0  0  0  0  0  0  0  0  0  0
   -3.3355   -2.0919   -2.7189 H   0  0  0  0  0  0  0  0  0  0  0  0
   -4.1800   -0.7285   -2.7459 H   0  0  0  0  0  0  0  0  0  0  0  0
   -0.3729    3.2412   -1.4595 H   0  0  0  0  0  0  0  0  0  0  0  0
    1.3665    2.9683   -1.4530 H   0  0  0  0  0  0  0  0  0  0  0  0
    1.2139    2.1608    0.9357 H   0  0  0  0  0  0  0  0  0  0  0  0
   -0.5175    2.5001    0.9219 H   0  0  0  0  0  0  0  0  0  0  0  0
    0.7327    4.3596    1.9457 H   0  0  0  0  0  0  0  0  0  0  0  0
    1.6914    4.5691    0.4703 H   0  0  0  0  0  0  0  0  0  0  0  0
   -0.0511    4.9075    0.4537 H   0  0  0  0  0  0  0  0  0  0  0  0
  1  2  1  0
  2  3  1  0
  3  4  1  0
  4  5  1  0
  5  6  2  0
  5  7  1  0
  7  8  1  0
  8  9  1  0
  9 10  2  0
  9 11  1  0
 11 12  1  0
 12 13  1  0
 13 14  2  0
 13 15  1  0
 11 16  1  0
  7 17  1  0
 17 18  1  0
 18 19  1  0
  1 20  1  0
  1 21  1  0
  1 22  1  0
  2 23  1  0
  2 24  1  0
  3 25  1  0
  3 26  1  0
  7 27  1  0
  8 28  1  0
 11 29  1  0
 12 30  1  0
 12 31  1  0
 15 32  1  0
 16 33  1  0
 16 34  1  0
 17 35  1  0
 17 36  1  0
 18 37  1  0
 18 38  1  0
 19 39  1  0
 19 40  1  0
 19 41  1  0
M  END
