
     RDKit          3D

 25 25  0  0  0  0  0  0  0  0999 V2000
   -2.2263    2.8726   -0.0377 C   0  0  0  0  0  0  0  0  0  0  0  0
   -2.2176    1.3544   -0.0313 C   0  0  0  0  0  0  0  0  0  0  0  0
   -0.8572    0.9247   -0.0190 O   0  0  0  0  0  0  0  0  0  0  0  0
   -0.6261   -0.4320    0.0150 C   0  0  0  0  0  0  0  0  0  0  0  0
   -1.6209   -1.4143   -0.0067 C   0  0  0  0  0  0  0  0  0  0  0  0
   -1.2722   -2.7661    0.0287 C   0  0  0  0  0  0  0  0  0  0  0  0
    0.0675   -3.1417    0.0836 C   0  0  0  0  0  0  0  0  0  0  0  0
    1.0683   -2.1687    0.1045 C   0  0  0  0  0  0  0  0  0  0  0  0
    0.7321   -0.8136    0.0736 C   0  0  0  0  0  0  0  0  0  0  0  0
    1.6898    0.2227    0.0861 N   0  0  0  0  0  0  0  0  0  0  0  0
    3.0414    0.1271    0.2478 C   0  0  0  0  0  0  0  0  0  0  0  0
    3.7145   -0.8693    0.4658 O   0  0  0  0  0  0  0  0  0  0  0  0
    3.6516    1.3440    0.1439 N   0  0  0  0  0  0  0  0  0  0  0  0
   -3.2502    3.2567   -0.0478 H   0  0  0  0  0  0  0  0  0  0  0  0
   -1.7100    3.2648    0.8448 H   0  0  0  0  0  0  0  0  0  0  0  0
   -1.6953    3.2575   -0.9147 H   0  0  0  0  0  0  0  0  0  0  0  0
   -2.7385    0.9982    0.8648 H   0  0  0  0  0  0  0  0  0  0  0  0
   -2.7227    0.9908   -0.9334 H   0  0  0  0  0  0  0  0  0  0  0  0
   -2.6753   -1.1649   -0.0518 H   0  0  0  0  0  0  0  0  0  0  0  0
   -2.0475   -3.5282    0.0126 H   0  0  0  0  0  0  0  0  0  0  0  0
    0.3392   -4.1941    0.1103 H   0  0  0  0  0  0  0  0  0  0  0  0
    2.1026   -2.4962    0.1433 H   0  0  0  0  0  0  0  0  0  0  0  0
    1.2941    1.1539    0.0991 H   0  0  0  0  0  0  0  0  0  0  0  0
    4.6613    1.2630    0.1542 H   0  0  0  0  0  0  0  0  0  0  0  0
    3.2975    1.9587   -0.5742 H   0  0  0  0  0  0  0  0  0  0  0  0
  1  2  1  0
  2  3  1  0
  3  4  1  0
  4  5  2  0
  5  6  1  0
  6  7  2  0
  7  8  1  0
  8  9  2  0
  9 10  1  0
 10 11  1  0
 11 12  2  0
 11 13  1  0
  9  4  1  0
  1 14  1  0
  1 15  1  0
  1 16  1  0
  2 17  1  0
  2 18  1  0
  5 19  1  0
  6 20  1  0
  7 21  1  0
  8 22  1  0
 10 23  1  0
 13 24  1  0
 13 25  1  0
M  END
