
     RDKit          3D

 29 28  0  0  0  0  0  0  0  0999 V2000
   -3.6373    0.7835   -0.8177 C   0  0  0  0  0  0  0  0  0  0  0  0
   -2.3704    0.3278   -0.3425 O   0  0  0  0  0  0  0  0  0  0  0  0
   -2.4324   -0.3647    0.8328 C   0  0  0  0  0  0  0  0  0  0  0  0
   -3.4725   -0.6252    1.4279 O   0  0  0  0  0  0  0  0  0  0  0  0
   -1.0412   -0.8270    1.3017 C   0  0  0  0  0  0  0  0  0  0  0  0
    0.0449   -0.3453    0.4464 N   0  0  0  0  0  0  0  0  0  0  0  0
    0.6141    0.8898    0.6548 C   0  0  0  0  0  0  0  0  0  0  0  0
    0.3712    1.5740    1.6478 O   0  0  0  0  0  0  0  0  0  0  0  0
    1.5780    1.3648   -0.4644 C   0  0  0  0  0  0  0  0  0  0  0  0
    2.8062    0.4589   -0.5639 C   0  0  0  0  0  0  0  0  0  0  0  0
    2.5158   -0.7611   -1.3930 C   0  0  0  0  0  0  0  0  0  0  0  0
    1.4249   -1.1317   -1.7980 O   0  0  0  0  0  0  0  0  0  0  0  0
    3.6259   -1.4789   -1.6482 O   0  0  0  0  0  0  0  0  0  0  0  0
    2.0148    2.7505   -0.1531 N   0  0  0  0  0  0  0  0  0  0  0  0
   -1.0123   -2.3494    1.3492 C   0  0  0  0  0  0  0  0  0  0  0  0
   -4.1029    1.4542   -0.0888 H   0  0  0  0  0  0  0  0  0  0  0  0
   -4.2912   -0.0660   -1.0381 H   0  0  0  0  0  0  0  0  0  0  0  0
   -3.4708    1.3413   -1.7434 H   0  0  0  0  0  0  0  0  0  0  0  0
   -0.8943   -0.4201    2.3086 H   0  0  0  0  0  0  0  0  0  0  0  0
    0.0676   -0.7050   -0.5083 H   0  0  0  0  0  0  0  0  0  0  0  0
    1.0181    1.3982   -1.4061 H   0  0  0  0  0  0  0  0  0  0  0  0
    3.6240    0.9922   -1.0645 H   0  0  0  0  0  0  0  0  0  0  0  0
    3.1457    0.1368    0.4269 H   0  0  0  0  0  0  0  0  0  0  0  0
    3.3248   -2.2403   -2.1869 H   0  0  0  0  0  0  0  0  0  0  0  0
    2.3916    2.7492    0.8000 H   0  0  0  0  0  0  0  0  0  0  0  0
    1.1703    3.3223   -0.0584 H   0  0  0  0  0  0  0  0  0  0  0  0
   -1.7879   -2.7391    2.0170 H   0  0  0  0  0  0  0  0  0  0  0  0
   -0.0419   -2.7102    1.7067 H   0  0  0  0  0  0  0  0  0  0  0  0
   -1.1829   -2.7797    0.3556 H   0  0  0  0  0  0  0  0  0  0  0  0
  1  2  1  0
  2  3  1  0
  3  4  2  0
  3  5  1  0
  5  6  1  0
  6  7  1  0
  7  8  2  0
  7  9  1  0
  9 10  1  0
 10 11  1  0
 11 12  2  0
 11 13  1  0
  9 14  1  0
  5 15  1  0
  1 16  1  0
  1 17  1  0
  1 18  1  0
  5 19  1  0
  6 20  1  0
  9 21  1  0
 10 22  1  0
 10 23  1  0
 13 24  1  0
 14 25  1  0
 14 26  1  0
 15 27  1  0
 15 28  1  0
 15 29  1  0
M  END
