
     RDKit          3D

 32 31  0  0  0  0  0  0  0  0999 V2000
   -0.7303    2.2896    1.5366 C   0  0  0  0  0  0  0  0  0  0  0  0
   -0.6358    0.8230    1.1434 C   0  0  0  0  0  0  0  0  0  0  0  0
   -1.1269    0.6374   -0.2992 C   0  0  0  0  0  0  0  0  0  0  0  0
   -0.3973    0.4820   -1.2731 O   0  0  0  0  0  0  0  0  0  0  0  0
   -2.4887    0.7008   -0.3458 O   0  0  0  0  0  0  0  0  0  0  0  0
   -3.0409    0.5247   -1.6557 C   0  0  0  0  0  0  0  0  0  0  0  0
   -4.5512    0.6025   -1.5469 C   0  0  0  0  0  0  0  0  0  0  0  0
    0.7474    0.3604    1.2453 N   0  0  0  0  0  0  0  0  0  0  0  0
    1.0145   -0.9850    1.3777 C   0  0  0  0  0  0  0  0  0  0  0  0
    0.1452   -1.8168    1.6336 O   0  0  0  0  0  0  0  0  0  0  0  0
    2.4977   -1.3762    1.1695 C   0  0  0  0  0  0  0  0  0  0  0  0
    2.7864   -1.5655   -0.3208 C   0  0  0  0  0  0  0  0  0  0  0  0
    2.8917   -0.2437   -1.0274 C   0  0  0  0  0  0  0  0  0  0  0  0
    2.8018    0.8644   -0.5211 O   0  0  0  0  0  0  0  0  0  0  0  0
    3.0987   -0.3876   -2.3494 O   0  0  0  0  0  0  0  0  0  0  0  0
    2.7584   -2.6456    1.8935 N   0  0  0  0  0  0  0  0  0  0  0  0
   -1.7647    2.6456    1.4872 H   0  0  0  0  0  0  0  0  0  0  0  0
   -0.3641    2.4435    2.5572 H   0  0  0  0  0  0  0  0  0  0  0  0
   -0.1313    2.9193    0.8688 H   0  0  0  0  0  0  0  0  0  0  0  0
   -1.2579    0.2074    1.8029 H   0  0  0  0  0  0  0  0  0  0  0  0
   -2.7482   -0.4539   -2.0523 H   0  0  0  0  0  0  0  0  0  0  0  0
   -2.6766    1.3168   -2.3194 H   0  0  0  0  0  0  0  0  0  0  0  0
   -4.9291   -0.1702   -0.8693 H   0  0  0  0  0  0  0  0  0  0  0  0
   -5.0201    0.4737   -2.5264 H   0  0  0  0  0  0  0  0  0  0  0  0
   -4.8585    1.5680   -1.1317 H   0  0  0  0  0  0  0  0  0  0  0  0
    1.4394    0.9042    0.7261 H   0  0  0  0  0  0  0  0  0  0  0  0
    3.1373   -0.6023    1.6092 H   0  0  0  0  0  0  0  0  0  0  0  0
    3.7451   -2.0802   -0.4568 H   0  0  0  0  0  0  0  0  0  0  0  0
    1.9939   -2.1526   -0.7995 H   0  0  0  0  0  0  0  0  0  0  0  0
    3.0806    0.5235   -2.7095 H   0  0  0  0  0  0  0  0  0  0  0  0
    2.0385   -3.3150    1.6000 H   0  0  0  0  0  0  0  0  0  0  0  0
    2.5451   -2.4922    2.8816 H   0  0  0  0  0  0  0  0  0  0  0  0
  1  2  1  0
  2  3  1  0
  3  4  2  0
  3  5  1  0
  5  6  1  0
  6  7  1  0
  2  8  1  0
  8  9  1  0
  9 10  2  0
  9 11  1  0
 11 12  1  0
 12 13  1  0
 13 14  2  0
 13 15  1  0
 11 16  1  0
  1 17  1  0
  1 18  1  0
  1 19  1  0
  2 20  1  0
  6 21  1  0
  6 22  1  0
  7 23  1  0
  7 24  1  0
  7 25  1  0
  8 26  1  0
 11 27  1  0
 12 28  1  0
 12 29  1  0
 15 30  1  0
 16 31  1  0
 16 32  1  0
M  END
