
     RDKit          3D

 35 34  0  0  0  0  0  0  0  0999 V2000
    2.9502    2.7798   -2.9216 C   0  0  0  0  0  0  0  0  0  0  0  0
    2.2859    2.0469   -1.7699 C   0  0  0  0  0  0  0  0  0  0  0  0
    1.7888    0.6681   -2.1894 C   0  0  0  0  0  0  0  0  0  0  0  0
    1.1168    0.0350   -1.0899 O   0  0  0  0  0  0  0  0  0  0  0  0
    1.9116   -0.6546   -0.2199 C   0  0  0  0  0  0  0  0  0  0  0  0
    3.1225   -0.7968   -0.3477 O   0  0  0  0  0  0  0  0  0  0  0  0
    1.0964   -1.2741    0.9298 C   0  0  0  0  0  0  0  0  0  0  0  0
   -0.3230   -0.9183    0.8849 N   0  0  0  0  0  0  0  0  0  0  0  0
   -0.7739    0.2541    1.4468 C   0  0  0  0  0  0  0  0  0  0  0  0
   -0.0642    0.9673    2.1544 O   0  0  0  0  0  0  0  0  0  0  0  0
   -2.2430    0.6205    1.1084 C   0  0  0  0  0  0  0  0  0  0  0  0
   -3.2206   -0.4044    1.6850 C   0  0  0  0  0  0  0  0  0  0  0  0
   -3.3540   -1.5973    0.7799 C   0  0  0  0  0  0  0  0  0  0  0  0
   -2.6695   -1.8587   -0.1970 O   0  0  0  0  0  0  0  0  0  0  0  0
   -4.3386   -2.4268    1.1734 O   0  0  0  0  0  0  0  0  0  0  0  0
   -2.5391    1.9584    1.6829 N   0  0  0  0  0  0  0  0  0  0  0  0
    1.2418   -2.7898    0.8840 C   0  0  0  0  0  0  0  0  0  0  0  0
    3.2983    3.7644   -2.5944 H   0  0  0  0  0  0  0  0  0  0  0  0
    2.2496    2.9254   -3.7499 H   0  0  0  0  0  0  0  0  0  0  0  0
    3.8138    2.2210   -3.2958 H   0  0  0  0  0  0  0  0  0  0  0  0
    2.9922    1.9537   -0.9369 H   0  0  0  0  0  0  0  0  0  0  0  0
    1.4456    2.6379   -1.3865 H   0  0  0  0  0  0  0  0  0  0  0  0
    2.6009    0.0388   -2.5724 H   0  0  0  0  0  0  0  0  0  0  0  0
    1.0530    0.7641   -2.9952 H   0  0  0  0  0  0  0  0  0  0  0  0
    1.5194   -0.8866    1.8637 H   0  0  0  0  0  0  0  0  0  0  0  0
   -0.8599   -1.2846    0.0981 H   0  0  0  0  0  0  0  0  0  0  0  0
   -2.3323    0.7016    0.0189 H   0  0  0  0  0  0  0  0  0  0  0  0
   -2.8999   -0.7488    2.6745 H   0  0  0  0  0  0  0  0  0  0  0  0
   -4.2203    0.0398    1.7691 H   0  0  0  0  0  0  0  0  0  0  0  0
   -4.3395   -3.1576    0.5203 H   0  0  0  0  0  0  0  0  0  0  0  0
   -1.8503    2.6133    1.3015 H   0  0  0  0  0  0  0  0  0  0  0  0
   -2.2926    1.9294    2.6773 H   0  0  0  0  0  0  0  0  0  0  0  0
    2.2924   -3.0889    0.9630 H   0  0  0  0  0  0  0  0  0  0  0  0
    0.6909   -3.2596    1.7060 H   0  0  0  0  0  0  0  0  0  0  0  0
    0.8506   -3.1966   -0.0556 H   0  0  0  0  0  0  0  0  0  0  0  0
  1  2  1  0
  2  3  1  0
  3  4  1  0
  4  5  1  0
  5  6  2  0
  5  7  1  0
  7  8  1  0
  8  9  1  0
  9 10  2  0
  9 11  1  0
 11 12  1  0
 12 13  1  0
 13 14  2  0
 13 15  1  0
 11 16  1  0
  7 17  1  0
  1 18  1  0
  1 19  1  0
  1 20  1  0
  2 21  1  0
  2 22  1  0
  3 23  1  0
  3 24  1  0
  7 25  1  0
  8 26  1  0
 11 27  1  0
 12 28  1  0
 12 29  1  0
 15 30  1  0
 16 31  1  0
 16 32  1  0
 17 33  1  0
 17 34  1  0
 17 35  1  0
M  END
