
     RDKit          3D

 35 34  0  0  0  0  0  0  0  0999 V2000
    0.7420   -3.0265   -0.5713 C   0  0  0  0  0  0  0  0  0  0  0  0
    0.8422   -1.5333   -0.8610 C   0  0  0  0  0  0  0  0  0  0  0  0
    1.9669   -0.9219   -0.0105 C   0  0  0  0  0  0  0  0  0  0  0  0
    3.1288   -1.3097   -0.0286 O   0  0  0  0  0  0  0  0  0  0  0  0
    1.5021    0.0987    0.7676 O   0  0  0  0  0  0  0  0  0  0  0  0
    2.4657    0.7456    1.6187 C   0  0  0  0  0  0  0  0  0  0  0  0
    1.9428    2.1492    1.8997 C   0  0  0  0  0  0  0  0  0  0  0  0
    2.6131   -0.0447    2.9136 C   0  0  0  0  0  0  0  0  0  0  0  0
   -0.4522   -0.8868   -0.6385 N   0  0  0  0  0  0  0  0  0  0  0  0
   -1.4349   -0.8555   -1.5948 C   0  0  0  0  0  0  0  0  0  0  0  0
   -1.2942   -1.3642   -2.7062 O   0  0  0  0  0  0  0  0  0  0  0  0
   -2.7421   -0.1365   -1.1754 C   0  0  0  0  0  0  0  0  0  0  0  0
   -2.5363    1.3780   -1.1225 C   0  0  0  0  0  0  0  0  0  0  0  0
   -1.9087    1.7944    0.1769 C   0  0  0  0  0  0  0  0  0  0  0  0
   -1.5057    1.0603    1.0650 O   0  0  0  0  0  0  0  0  0  0  0  0
   -1.7975    3.1315    0.2848 O   0  0  0  0  0  0  0  0  0  0  0  0
   -3.7961   -0.4550   -2.1728 N   0  0  0  0  0  0  0  0  0  0  0  0
    1.6953   -3.5307   -0.7624 H   0  0  0  0  0  0  0  0  0  0  0  0
    0.4757   -3.2062    0.4766 H   0  0  0  0  0  0  0  0  0  0  0  0
   -0.0227   -3.5010   -1.1952 H   0  0  0  0  0  0  0  0  0  0  0  0
    1.1178   -1.3739   -1.9100 H   0  0  0  0  0  0  0  0  0  0  0  0
    3.4328    0.8309    1.1085 H   0  0  0  0  0  0  0  0  0  0  0  0
    2.6324    2.7103    2.5376 H   0  0  0  0  0  0  0  0  0  0  0  0
    1.8071    2.6997    0.9624 H   0  0  0  0  0  0  0  0  0  0  0  0
    0.9625    2.1144    2.3877 H   0  0  0  0  0  0  0  0  0  0  0  0
    1.6441   -0.1653    3.4107 H   0  0  0  0  0  0  0  0  0  0  0  0
    2.9902   -1.0531    2.7149 H   0  0  0  0  0  0  0  0  0  0  0  0
    3.3029    0.4507    3.6036 H   0  0  0  0  0  0  0  0  0  0  0  0
   -0.6050   -0.4362    0.2657 H   0  0  0  0  0  0  0  0  0  0  0  0
   -3.0674   -0.5395   -0.2096 H   0  0  0  0  0  0  0  0  0  0  0  0
   -1.8985    1.7201   -1.9454 H   0  0  0  0  0  0  0  0  0  0  0  0
   -3.5041    1.8911   -1.1839 H   0  0  0  0  0  0  0  0  0  0  0  0
   -1.3849    3.2856    1.1603 H   0  0  0  0  0  0  0  0  0  0  0  0
   -3.9023   -1.4727   -2.1955 H   0  0  0  0  0  0  0  0  0  0  0  0
   -3.4116   -0.2478   -3.1008 H   0  0  0  0  0  0  0  0  0  0  0  0
  1  2  1  0
  2  3  1  0
  3  4  2  0
  3  5  1  0
  5  6  1  0
  6  7  1  0
  6  8  1  0
  2  9  1  0
  9 10  1  0
 10 11  2  0
 10 12  1  0
 12 13  1  0
 13 14  1  0
 14 15  2  0
 14 16  1  0
 12 17  1  0
  1 18  1  0
  1 19  1  0
  1 20  1  0
  2 21  1  0
  6 22  1  0
  7 23  1  0
  7 24  1  0
  7 25  1  0
  8 26  1  0
  8 27  1  0
  8 28  1  0
  9 29  1  0
 12 30  1  0
 13 31  1  0
 13 32  1  0
 16 33  1  0
 17 34  1  0
 17 35  1  0
M  END
