
     RDKit          3D

 38 37  0  0  0  0  0  0  0  0999 V2000
    5.3150    1.1475   -1.3841 C   0  0  0  0  0  0  0  0  0  0  0  0
    4.4801   -0.0393   -0.9304 C   0  0  0  0  0  0  0  0  0  0  0  0
    3.3798    0.3907    0.0357 C   0  0  0  0  0  0  0  0  0  0  0  0
    2.5605   -0.8002    0.5204 C   0  0  0  0  0  0  0  0  0  0  0  0
    1.5262   -0.3496    1.4087 O   0  0  0  0  0  0  0  0  0  0  0  0
    0.3457   -0.0076    0.8162 C   0  0  0  0  0  0  0  0  0  0  0  0
    0.1328   -0.0198   -0.3917 O   0  0  0  0  0  0  0  0  0  0  0  0
   -0.6725    0.4311    1.8772 C   0  0  0  0  0  0  0  0  0  0  0  0
   -2.0185    0.3459    1.3125 N   0  0  0  0  0  0  0  0  0  0  0  0
   -2.6548   -0.8748    1.2453 C   0  0  0  0  0  0  0  0  0  0  0  0
   -2.2510   -1.8704    1.8440 O   0  0  0  0  0  0  0  0  0  0  0  0
   -3.9132   -0.9047    0.3452 C   0  0  0  0  0  0  0  0  0  0  0  0
   -3.5094   -1.1147   -1.1159 C   0  0  0  0  0  0  0  0  0  0  0  0
   -2.9708    0.1504   -1.7214 C   0  0  0  0  0  0  0  0  0  0  0  0
   -2.8382    1.2282   -1.1619 O   0  0  0  0  0  0  0  0  0  0  0  0
   -2.6139   -0.0117   -3.0089 O   0  0  0  0  0  0  0  0  0  0  0  0
   -4.7830   -2.0243    0.7851 N   0  0  0  0  0  0  0  0  0  0  0  0
   -0.3725    1.8545    2.3214 C   0  0  0  0  0  0  0  0  0  0  0  0
    6.0839    0.8225   -2.0924 H   0  0  0  0  0  0  0  0  0  0  0  0
    5.8152    1.6203   -0.5322 H   0  0  0  0  0  0  0  0  0  0  0  0
    4.6923    1.9019   -1.8778 H   0  0  0  0  0  0  0  0  0  0  0  0
    4.0341   -0.5223   -1.8079 H   0  0  0  0  0  0  0  0  0  0  0  0
    5.1351   -0.7770   -0.4514 H   0  0  0  0  0  0  0  0  0  0  0  0
    3.8114    0.9067    0.9021 H   0  0  0  0  0  0  0  0  0  0  0  0
    2.7212    1.1225   -0.4482 H   0  0  0  0  0  0  0  0  0  0  0  0
    3.1959   -1.4843    1.0922 H   0  0  0  0  0  0  0  0  0  0  0  0
    2.1414   -1.3749   -0.3138 H   0  0  0  0  0  0  0  0  0  0  0  0
   -0.6082   -0.2569    2.7272 H   0  0  0  0  0  0  0  0  0  0  0  0
   -2.2277    1.0011    0.5571 H   0  0  0  0  0  0  0  0  0  0  0  0
   -4.4725    0.0280    0.4798 H   0  0  0  0  0  0  0  0  0  0  0  0
   -4.3850   -1.4067   -1.7092 H   0  0  0  0  0  0  0  0  0  0  0  0
   -2.7455   -1.8959   -1.2014 H   0  0  0  0  0  0  0  0  0  0  0  0
   -2.2233    0.8467   -3.2749 H   0  0  0  0  0  0  0  0  0  0  0  0
   -5.0267   -1.8667    1.7654 H   0  0  0  0  0  0  0  0  0  0  0  0
   -4.1980   -2.8661    0.8216 H   0  0  0  0  0  0  0  0  0  0  0  0
   -1.0942    2.1876    3.0764 H   0  0  0  0  0  0  0  0  0  0  0  0
    0.6314    1.9275    2.7539 H   0  0  0  0  0  0  0  0  0  0  0  0
   -0.4227    2.5547    1.4784 H   0  0  0  0  0  0  0  0  0  0  0  0
  1  2  1  0
  2  3  1  0
  3  4  1  0
  4  5  1  0
  5  6  1  0
  6  7  2  0
  6  8  1  0
  8  9  1  0
  9 10  1  0
 10 11  2  0
 10 12  1  0
 12 13  1  0
 13 14  1  0
 14 15  2  0
 14 16  1  0
 12 17  1  0
  8 18  1  0
  1 19  1  0
  1 20  1  0
  1 21  1  0
  2 22  1  0
  2 23  1  0
  3 24  1  0
  3 25  1  0
  4 26  1  0
  4 27  1  0
  8 28  1  0
  9 29  1  0
 12 30  1  0
 13 31  1  0
 13 32  1  0
 16 33  1  0
 17 34  1  0
 17 35  1  0
 18 36  1  0
 18 37  1  0
 18 38  1  0
M  END
