
     RDKit          3D

 41 40  0  0  0  0  0  0  0  0999 V2000
    4.5277    1.5252   -2.0548 C   0  0  0  0  0  0  0  0  0  0  0  0
    3.9107    1.8060   -0.6931 C   0  0  0  0  0  0  0  0  0  0  0  0
    4.1678    0.6574    0.2826 C   0  0  0  0  0  0  0  0  0  0  0  0
    3.6664    0.9420    1.7031 C   0  0  0  0  0  0  0  0  0  0  0  0
    2.1575    1.1471    1.8141 C   0  0  0  0  0  0  0  0  0  0  0  0
    1.4868   -0.0092    1.2997 O   0  0  0  0  0  0  0  0  0  0  0  0
    0.1277    0.0969    1.2691 C   0  0  0  0  0  0  0  0  0  0  0  0
   -0.5128    1.0557    1.6858 O   0  0  0  0  0  0  0  0  0  0  0  0
   -0.4904   -1.1765    0.6818 C   0  0  0  0  0  0  0  0  0  0  0  0
   -1.8314   -0.8788    0.1815 N   0  0  0  0  0  0  0  0  0  0  0  0
   -2.0080   -0.3529   -1.0777 C   0  0  0  0  0  0  0  0  0  0  0  0
   -1.0959   -0.2823   -1.9004 O   0  0  0  0  0  0  0  0  0  0  0  0
   -3.4436    0.1488   -1.3832 C   0  0  0  0  0  0  0  0  0  0  0  0
   -4.4385   -1.0120   -1.4148 C   0  0  0  0  0  0  0  0  0  0  0  0
   -4.8983   -1.3733   -0.0300 C   0  0  0  0  0  0  0  0  0  0  0  0
   -4.4597   -0.9480    1.0268 O   0  0  0  0  0  0  0  0  0  0  0  0
   -5.8874   -2.2872   -0.0456 O   0  0  0  0  0  0  0  0  0  0  0  0
   -3.4345    0.8237   -2.7071 N   0  0  0  0  0  0  0  0  0  0  0  0
   -0.5543   -2.2552    1.7525 C   0  0  0  0  0  0  0  0  0  0  0  0
    5.6125    1.4013   -1.9765 H   0  0  0  0  0  0  0  0  0  0  0  0
    4.3297    2.3562   -2.7391 H   0  0  0  0  0  0  0  0  0  0  0  0
    4.1082    0.6150   -2.4950 H   0  0  0  0  0  0  0  0  0  0  0  0
    4.3300    2.7363   -0.2932 H   0  0  0  0  0  0  0  0  0  0  0  0
    2.8343    1.9612   -0.8231 H   0  0  0  0  0  0  0  0  0  0  0  0
    5.2469    0.4653    0.3352 H   0  0  0  0  0  0  0  0  0  0  0  0
    3.7070   -0.2617   -0.0991 H   0  0  0  0  0  0  0  0  0  0  0  0
    4.1815    1.8209    2.1079 H   0  0  0  0  0  0  0  0  0  0  0  0
    3.9485    0.0862    2.3292 H   0  0  0  0  0  0  0  0  0  0  0  0
    1.8895    1.2760    2.8694 H   0  0  0  0  0  0  0  0  0  0  0  0
    1.8484    2.0407    1.2606 H   0  0  0  0  0  0  0  0  0  0  0  0
    0.1290   -1.5090   -0.1589 H   0  0  0  0  0  0  0  0  0  0  0  0
   -2.5294   -0.6219    0.8815 H   0  0  0  0  0  0  0  0  0  0  0  0
   -3.7142    0.8984   -0.6308 H   0  0  0  0  0  0  0  0  0  0  0  0
   -5.3343   -0.7212   -1.9777 H   0  0  0  0  0  0  0  0  0  0  0  0
   -3.9985   -1.9007   -1.8810 H   0  0  0  0  0  0  0  0  0  0  0  0
   -6.1081   -2.4411    0.8969 H   0  0  0  0  0  0  0  0  0  0  0  0
   -2.9975    0.1822   -3.3765 H   0  0  0  0  0  0  0  0  0  0  0  0
   -2.7568    1.5895   -2.6539 H   0  0  0  0  0  0  0  0  0  0  0  0
   -1.0060   -3.1708    1.3562 H   0  0  0  0  0  0  0  0  0  0  0  0
   -1.1564   -1.9303    2.6089 H   0  0  0  0  0  0  0  0  0  0  0  0
    0.4459   -2.5000    2.1251 H   0  0  0  0  0  0  0  0  0  0  0  0
  1  2  1  0
  2  3  1  0
  3  4  1  0
  4  5  1  0
  5  6  1  0
  6  7  1  0
  7  8  2  0
  7  9  1  0
  9 10  1  0
 10 11  1  0
 11 12  2  0
 11 13  1  0
 13 14  1  0
 14 15  1  0
 15 16  2  0
 15 17  1  0
 13 18  1  0
  9 19  1  0
  1 20  1  0
  1 21  1  0
  1 22  1  0
  2 23  1  0
  2 24  1  0
  3 25  1  0
  3 26  1  0
  4 27  1  0
  4 28  1  0
  5 29  1  0
  5 30  1  0
  9 31  1  0
 10 32  1  0
 13 33  1  0
 14 34  1  0
 14 35  1  0
 17 36  1  0
 18 37  1  0
 18 38  1  0
 19 39  1  0
 19 40  1  0
 19 41  1  0
M  END
