
     RDKit          3D

 38 37  0  0  0  0  0  0  0  0999 V2000
   -0.7404   -2.5073    1.1703 C   0  0  0  0  0  0  0  0  0  0  0  0
   -0.7558   -2.5776   -0.3529 C   0  0  0  0  0  0  0  0  0  0  0  0
   -0.6980   -1.2045   -1.0388 C   0  0  0  0  0  0  0  0  0  0  0  0
   -1.9766   -0.4021   -0.7414 C   0  0  0  0  0  0  0  0  0  0  0  0
   -3.1096   -0.7999   -0.9830 O   0  0  0  0  0  0  0  0  0  0  0  0
   -1.6807    0.7948   -0.1544 O   0  0  0  0  0  0  0  0  0  0  0  0
   -2.7987    1.6302    0.1968 C   0  0  0  0  0  0  0  0  0  0  0  0
   -3.2234    2.4494   -1.0162 C   0  0  0  0  0  0  0  0  0  0  0  0
   -2.3367    2.5395    1.3288 C   0  0  0  0  0  0  0  0  0  0  0  0
    0.5188   -0.4743   -0.6823 N   0  0  0  0  0  0  0  0  0  0  0  0
    1.7432   -0.7478   -1.2335 C   0  0  0  0  0  0  0  0  0  0  0  0
    1.9130   -1.6297   -2.0737 O   0  0  0  0  0  0  0  0  0  0  0  0
    2.9037    0.1388   -0.7175 C   0  0  0  0  0  0  0  0  0  0  0  0
    3.3375   -0.3035    0.6804 C   0  0  0  0  0  0  0  0  0  0  0  0
    2.4281    0.2555    1.7382 C   0  0  0  0  0  0  0  0  0  0  0  0
    1.3844    0.8644    1.5649 O   0  0  0  0  0  0  0  0  0  0  0  0
    2.8725   -0.0086    2.9813 O   0  0  0  0  0  0  0  0  0  0  0  0
    4.0485    0.0096   -1.6545 N   0  0  0  0  0  0  0  0  0  0  0  0
   -0.8017   -3.5163    1.5908 H   0  0  0  0  0  0  0  0  0  0  0  0
    0.1815   -2.0488    1.5401 H   0  0  0  0  0  0  0  0  0  0  0  0
   -1.5897   -1.9337    1.5537 H   0  0  0  0  0  0  0  0  0  0  0  0
   -1.6633   -3.1071   -0.6678 H   0  0  0  0  0  0  0  0  0  0  0  0
    0.0937   -3.1895   -0.6791 H   0  0  0  0  0  0  0  0  0  0  0  0
   -0.6740   -1.3477   -2.1264 H   0  0  0  0  0  0  0  0  0  0  0  0
   -3.6349    1.0206    0.5600 H   0  0  0  0  0  0  0  0  0  0  0  0
   -3.5561    1.7974   -1.8303 H   0  0  0  0  0  0  0  0  0  0  0  0
   -2.3834    3.0344   -1.4070 H   0  0  0  0  0  0  0  0  0  0  0  0
   -4.0411    3.1323   -0.7663 H   0  0  0  0  0  0  0  0  0  0  0  0
   -2.0121    1.9419    2.1877 H   0  0  0  0  0  0  0  0  0  0  0  0
   -1.4746    3.1426    1.0227 H   0  0  0  0  0  0  0  0  0  0  0  0
   -3.1380    3.2102    1.6534 H   0  0  0  0  0  0  0  0  0  0  0  0
    0.4308    0.2655    0.0178 H   0  0  0  0  0  0  0  0  0  0  0  0
    2.5794    1.1857   -0.7306 H   0  0  0  0  0  0  0  0  0  0  0  0
    3.3424   -1.3960    0.7671 H   0  0  0  0  0  0  0  0  0  0  0  0
    4.3442    0.0756    0.8960 H   0  0  0  0  0  0  0  0  0  0  0  0
    2.2142    0.3967    3.5838 H   0  0  0  0  0  0  0  0  0  0  0  0
    4.2267   -0.9925   -1.7820 H   0  0  0  0  0  0  0  0  0  0  0  0
    3.7265    0.3019   -2.5807 H   0  0  0  0  0  0  0  0  0  0  0  0
  1  2  1  0
  2  3  1  0
  3  4  1  0
  4  5  2  0
  4  6  1  0
  6  7  1  0
  7  8  1  0
  7  9  1  0
  3 10  1  0
 10 11  1  0
 11 12  2  0
 11 13  1  0
 13 14  1  0
 14 15  1  0
 15 16  2  0
 15 17  1  0
 13 18  1  0
  1 19  1  0
  1 20  1  0
  1 21  1  0
  2 22  1  0
  2 23  1  0
  3 24  1  0
  7 25  1  0
  8 26  1  0
  8 27  1  0
  8 28  1  0
  9 29  1  0
  9 30  1  0
  9 31  1  0
 10 32  1  0
 13 33  1  0
 14 34  1  0
 14 35  1  0
 17 36  1  0
 18 37  1  0
 18 38  1  0
M  END
