
     RDKit          3D

 41 40  0  0  0  0  0  0  0  0999 V2000
    2.6950    1.7605   -2.0849 O   0  0  0  0  0  0  0  0  0  0  0  0
    2.1657    1.4827   -0.8788 C   0  0  0  0  0  0  0  0  0  0  0  0
    2.3904    0.4157   -0.3290 O   0  0  0  0  0  0  0  0  0  0  0  0
    1.2898    2.5922   -0.3700 C   0  0  0  0  0  0  0  0  0  0  0  0
    0.9544    2.3977    1.1094 C   0  0  0  0  0  0  0  0  0  0  0  0
   -0.2078    1.3875    1.2710 C   0  0  0  0  0  0  0  0  0  0  0  0
   -1.3736    1.7486    1.4232 O   0  0  0  0  0  0  0  0  0  0  0  0
    0.1686    0.0638    1.2304 N   0  0  0  0  0  0  0  0  0  0  0  0
   -0.8404   -0.9980    1.1813 C   0  0  0  0  0  0  0  0  0  0  0  0
   -1.3873   -1.2536   -0.2396 C   0  0  0  0  0  0  0  0  0  0  0  0
   -2.2509   -2.0858   -0.4949 O   0  0  0  0  0  0  0  0  0  0  0  0
   -0.7776   -0.4623   -1.1716 O   0  0  0  0  0  0  0  0  0  0  0  0
   -1.2476   -0.6026   -2.5247 C   0  0  0  0  0  0  0  0  0  0  0  0
   -0.1273   -0.1288   -3.4422 C   0  0  0  0  0  0  0  0  0  0  0  0
   -2.4978    0.2476   -2.7208 C   0  0  0  0  0  0  0  0  0  0  0  0
   -0.3143   -2.3177    1.7936 C   0  0  0  0  0  0  0  0  0  0  0  0
    0.9250   -2.8667    1.0785 C   0  0  0  0  0  0  0  0  0  0  0  0
   -0.0263   -2.1567    3.2893 C   0  0  0  0  0  0  0  0  0  0  0  0
    0.5342    3.6944    1.6976 N   0  0  0  0  0  0  0  0  0  0  0  0
    3.2357    0.9769   -2.3175 H   0  0  0  0  0  0  0  0  0  0  0  0
    1.8489    3.5268   -0.5028 H   0  0  0  0  0  0  0  0  0  0  0  0
    0.3839    2.6299   -0.9855 H   0  0  0  0  0  0  0  0  0  0  0  0
    1.8204    2.0381    1.6770 H   0  0  0  0  0  0  0  0  0  0  0  0
    1.0662   -0.1362    0.7883 H   0  0  0  0  0  0  0  0  0  0  0  0
   -1.7055   -0.6549    1.7637 H   0  0  0  0  0  0  0  0  0  0  0  0
   -1.4580   -1.6548   -2.7511 H   0  0  0  0  0  0  0  0  0  0  0  0
    0.1217    0.9202   -3.2491 H   0  0  0  0  0  0  0  0  0  0  0  0
   -0.4056   -0.2329   -4.4953 H   0  0  0  0  0  0  0  0  0  0  0  0
    0.7846   -0.7084   -3.2622 H   0  0  0  0  0  0  0  0  0  0  0  0
   -2.3043    1.2936   -2.4580 H   0  0  0  0  0  0  0  0  0  0  0  0
   -2.8480    0.2041   -3.7567 H   0  0  0  0  0  0  0  0  0  0  0  0
   -3.3089   -0.0934   -2.0693 H   0  0  0  0  0  0  0  0  0  0  0  0
   -1.1037   -3.0753    1.6972 H   0  0  0  0  0  0  0  0  0  0  0  0
    0.7434   -2.9945    0.0068 H   0  0  0  0  0  0  0  0  0  0  0  0
    1.7921   -2.2103    1.2030 H   0  0  0  0  0  0  0  0  0  0  0  0
    1.1955   -3.8475    1.4850 H   0  0  0  0  0  0  0  0  0  0  0  0
    0.7894   -1.4490    3.4706 H   0  0  0  0  0  0  0  0  0  0  0  0
   -0.9142   -1.7967    3.8196 H   0  0  0  0  0  0  0  0  0  0  0  0
    0.2593   -3.1167    3.7326 H   0  0  0  0  0  0  0  0  0  0  0  0
   -0.3797    3.9289    1.2942 H   0  0  0  0  0  0  0  0  0  0  0  0
    0.3148    3.5338    2.6838 H   0  0  0  0  0  0  0  0  0  0  0  0
  1  2  1  0
  2  3  2  0
  2  4  1  0
  4  5  1  0
  5  6  1  0
  6  7  2  0
  6  8  1  0
  8  9  1  0
  9 10  1  0
 10 11  2  0
 10 12  1  0
 12 13  1  0
 13 14  1  0
 13 15  1  0
  9 16  1  0
 16 17  1  0
 16 18  1  0
  5 19  1  0
  1 20  1  0
  4 21  1  0
  4 22  1  0
  5 23  1  0
  8 24  1  0
  9 25  1  0
 13 26  1  0
 14 27  1  0
 14 28  1  0
 14 29  1  0
 15 30  1  0
 15 31  1  0
 15 32  1  0
 16 33  1  0
 17 34  1  0
 17 35  1  0
 17 36  1  0
 18 37  1  0
 18 38  1  0
 18 39  1  0
 19 40  1  0
 19 41  1  0
M  END
