
     RDKit          3D

 41 40  0  0  0  0  0  0  0  0999 V2000
   -0.6557    3.9873   -1.0316 C   0  0  0  0  0  0  0  0  0  0  0  0
   -0.2335    2.5337   -0.8756 C   0  0  0  0  0  0  0  0  0  0  0  0
   -0.3566    2.0733    0.5816 C   0  0  0  0  0  0  0  0  0  0  0  0
    0.0212    0.6050    0.8212 C   0  0  0  0  0  0  0  0  0  0  0  0
   -0.8659   -0.3474    0.0031 C   0  0  0  0  0  0  0  0  0  0  0  0
   -0.4825   -1.0063   -0.9576 O   0  0  0  0  0  0  0  0  0  0  0  0
   -2.1422   -0.3292    0.4837 O   0  0  0  0  0  0  0  0  0  0  0  0
   -3.0895   -1.1696   -0.2001 C   0  0  0  0  0  0  0  0  0  0  0  0
   -4.2042   -1.4870    0.7890 C   0  0  0  0  0  0  0  0  0  0  0  0
   -3.6397   -0.4305   -1.4147 C   0  0  0  0  0  0  0  0  0  0  0  0
    1.4290    0.3540    0.5120 N   0  0  0  0  0  0  0  0  0  0  0  0
    2.0899   -0.6932    1.1181 C   0  0  0  0  0  0  0  0  0  0  0  0
    1.6339   -1.3041    2.0835 O   0  0  0  0  0  0  0  0  0  0  0  0
    3.4556   -1.0519    0.4834 C   0  0  0  0  0  0  0  0  0  0  0  0
    3.2513   -1.9952   -0.7036 C   0  0  0  0  0  0  0  0  0  0  0  0
    2.7384   -1.2551   -1.9063 C   0  0  0  0  0  0  0  0  0  0  0  0
    2.5126   -0.0571   -1.9856 O   0  0  0  0  0  0  0  0  0  0  0  0
    2.5268   -2.0714   -2.9552 O   0  0  0  0  0  0  0  0  0  0  0  0
    4.2944   -1.7179    1.5114 N   0  0  0  0  0  0  0  0  0  0  0  0
   -0.0292    4.6455   -0.4213 H   0  0  0  0  0  0  0  0  0  0  0  0
   -1.6987    4.1273   -0.7300 H   0  0  0  0  0  0  0  0  0  0  0  0
   -0.5598    4.2995   -2.0763 H   0  0  0  0  0  0  0  0  0  0  0  0
    0.8000    2.4302   -1.2227 H   0  0  0  0  0  0  0  0  0  0  0  0
   -0.8604    1.9140   -1.5259 H   0  0  0  0  0  0  0  0  0  0  0  0
   -1.3895    2.2352    0.9156 H   0  0  0  0  0  0  0  0  0  0  0  0
    0.2803    2.7095    1.2097 H   0  0  0  0  0  0  0  0  0  0  0  0
   -0.1361    0.3645    1.8798 H   0  0  0  0  0  0  0  0  0  0  0  0
   -2.6177   -2.1114   -0.5056 H   0  0  0  0  0  0  0  0  0  0  0  0
   -4.9682   -2.1264    0.3363 H   0  0  0  0  0  0  0  0  0  0  0  0
   -3.7979   -1.9982    1.6686 H   0  0  0  0  0  0  0  0  0  0  0  0
   -4.6821   -0.5701    1.1516 H   0  0  0  0  0  0  0  0  0  0  0  0
   -4.4005   -1.0254   -1.9291 H   0  0  0  0  0  0  0  0  0  0  0  0
   -4.0812    0.5287   -1.1222 H   0  0  0  0  0  0  0  0  0  0  0  0
   -2.8411   -0.2021   -2.1280 H   0  0  0  0  0  0  0  0  0  0  0  0
    1.7205    0.5619   -0.4444 H   0  0  0  0  0  0  0  0  0  0  0  0
    3.9643   -0.1290    0.1826 H   0  0  0  0  0  0  0  0  0  0  0  0
    2.5366   -2.7880   -0.4535 H   0  0  0  0  0  0  0  0  0  0  0  0
    4.2064   -2.4515   -0.9903 H   0  0  0  0  0  0  0  0  0  0  0  0
    2.1361   -1.4987   -3.6477 H   0  0  0  0  0  0  0  0  0  0  0  0
    4.3987   -1.0716    2.2969 H   0  0  0  0  0  0  0  0  0  0  0  0
    3.7364   -2.4812    1.9092 H   0  0  0  0  0  0  0  0  0  0  0  0
  1  2  1  0
  2  3  1  0
  3  4  1  0
  4  5  1  0
  5  6  2  0
  5  7  1  0
  7  8  1  0
  8  9  1  0
  8 10  1  0
  4 11  1  0
 11 12  1  0
 12 13  2  0
 12 14  1  0
 14 15  1  0
 15 16  1  0
 16 17  2  0
 16 18  1  0
 14 19  1  0
  1 20  1  0
  1 21  1  0
  1 22  1  0
  2 23  1  0
  2 24  1  0
  3 25  1  0
  3 26  1  0
  4 27  1  0
  8 28  1  0
  9 29  1  0
  9 30  1  0
  9 31  1  0
 10 32  1  0
 10 33  1  0
 10 34  1  0
 11 35  1  0
 14 36  1  0
 15 37  1  0
 15 38  1  0
 18 39  1  0
 19 40  1  0
 19 41  1  0
M  END
