
     RDKit          3D

 41 40  0  0  0  0  0  0  0  0999 V2000
    2.7022    2.3260   -3.0131 C   0  0  0  0  0  0  0  0  0  0  0  0
    2.1865    1.8527   -1.7678 O   0  0  0  0  0  0  0  0  0  0  0  0
    0.8230    1.7934   -1.7091 C   0  0  0  0  0  0  0  0  0  0  0  0
    0.0827    2.1264   -2.6278 O   0  0  0  0  0  0  0  0  0  0  0  0
    0.3350    1.2897   -0.3563 C   0  0  0  0  0  0  0  0  0  0  0  0
   -0.6231    0.1258   -0.5713 C   0  0  0  0  0  0  0  0  0  0  0  0
   -0.2694   -1.0463   -0.6486 O   0  0  0  0  0  0  0  0  0  0  0  0
   -1.9026    0.5769   -0.6709 O   0  0  0  0  0  0  0  0  0  0  0  0
   -3.0055   -0.3423   -0.8766 C   0  0  0  0  0  0  0  0  0  0  0  0
   -3.1446   -1.3141    0.3002 C   0  0  0  0  0  0  0  0  0  0  0  0
   -4.2542    0.5509   -0.9270 C   0  0  0  0  0  0  0  0  0  0  0  0
   -2.8735   -1.0766   -2.2152 C   0  0  0  0  0  0  0  0  0  0  0  0
    1.4236    0.8432    0.5257 N   0  0  0  0  0  0  0  0  0  0  0  0
    1.2241    0.7213    1.8773 C   0  0  0  0  0  0  0  0  0  0  0  0
    0.2101    1.1387    2.4338 O   0  0  0  0  0  0  0  0  0  0  0  0
    2.3588    0.0010    2.6435 C   0  0  0  0  0  0  0  0  0  0  0  0
    2.1722   -1.5149    2.5533 C   0  0  0  0  0  0  0  0  0  0  0  0
    2.5435   -2.0307    1.1916 C   0  0  0  0  0  0  0  0  0  0  0  0
    3.0007   -1.3807    0.2641 O   0  0  0  0  0  0  0  0  0  0  0  0
    2.3079   -3.3495    1.0654 O   0  0  0  0  0  0  0  0  0  0  0  0
    2.3165    0.4260    4.0641 N   0  0  0  0  0  0  0  0  0  0  0  0
    2.4001    1.6629   -3.8298 H   0  0  0  0  0  0  0  0  0  0  0  0
    2.3683    3.3512   -3.2006 H   0  0  0  0  0  0  0  0  0  0  0  0
    3.7939    2.3229   -2.9505 H   0  0  0  0  0  0  0  0  0  0  0  0
   -0.1817    2.1126    0.1502 H   0  0  0  0  0  0  0  0  0  0  0  0
   -2.3127   -2.0233    0.3459 H   0  0  0  0  0  0  0  0  0  0  0  0
   -3.1478   -0.7727    1.2530 H   0  0  0  0  0  0  0  0  0  0  0  0
   -4.0687   -1.8978    0.2278 H   0  0  0  0  0  0  0  0  0  0  0  0
   -5.1671   -0.0338   -1.0813 H   0  0  0  0  0  0  0  0  0  0  0  0
   -4.1740    1.2875   -1.7350 H   0  0  0  0  0  0  0  0  0  0  0  0
   -4.3620    1.1227    0.0023 H   0  0  0  0  0  0  0  0  0  0  0  0
   -2.0374   -1.7823   -2.2140 H   0  0  0  0  0  0  0  0  0  0  0  0
   -2.6852   -0.3684   -3.0300 H   0  0  0  0  0  0  0  0  0  0  0  0
   -3.7805   -1.6443   -2.4493 H   0  0  0  0  0  0  0  0  0  0  0  0
    2.1518    0.2726    0.0912 H   0  0  0  0  0  0  0  0  0  0  0  0
    3.3240    0.3127    2.2282 H   0  0  0  0  0  0  0  0  0  0  0  0
    2.8225   -2.0195    3.2777 H   0  0  0  0  0  0  0  0  0  0  0  0
    1.1302   -1.7898    2.7555 H   0  0  0  0  0  0  0  0  0  0  0  0
    2.5230   -3.5604    0.1326 H   0  0  0  0  0  0  0  0  0  0  0  0
    2.4336    1.4412    4.0941 H   0  0  0  0  0  0  0  0  0  0  0  0
    1.3558    0.2893    4.3965 H   0  0  0  0  0  0  0  0  0  0  0  0
  1  2  1  0
  2  3  1  0
  3  4  2  0
  3  5  1  0
  5  6  1  0
  6  7  2  0
  6  8  1  0
  8  9  1  0
  9 10  1  0
  9 11  1  0
  9 12  1  0
  5 13  1  0
 13 14  1  0
 14 15  2  0
 14 16  1  0
 16 17  1  0
 17 18  1  0
 18 19  2  0
 18 20  1  0
 16 21  1  0
  1 22  1  0
  1 23  1  0
  1 24  1  0
  5 25  1  0
 10 26  1  0
 10 27  1  0
 10 28  1  0
 11 29  1  0
 11 30  1  0
 11 31  1  0
 12 32  1  0
 12 33  1  0
 12 34  1  0
 13 35  1  0
 16 36  1  0
 17 37  1  0
 17 38  1  0
 20 39  1  0
 21 40  1  0
 21 41  1  0
M  END
