
     RDKit          3D

 42 44  0  0  0  0  0  0  0  0999 V2000
    6.2305   -0.3797   -0.0389 C   0  0  0  0  0  0  0  0  0  0  0  0
    5.2778    0.4483   -0.6961 O   0  0  0  0  0  0  0  0  0  0  0  0
    3.9575    0.1255   -0.5179 C   0  0  0  0  0  0  0  0  0  0  0  0
    3.4617   -0.9209    0.2568 C   0  0  0  0  0  0  0  0  0  0  0  0
    2.0792   -1.1343    0.3471 C   0  0  0  0  0  0  0  0  0  0  0  0
    1.1715   -0.3078   -0.3373 C   0  0  0  0  0  0  0  0  0  0  0  0
    1.6768    0.7455   -1.1126 C   0  0  0  0  0  0  0  0  0  0  0  0
    3.0502    0.9478   -1.1937 C   0  0  0  0  0  0  0  0  0  0  0  0
    3.5028    1.9874   -1.9605 O   0  0  0  0  0  0  0  0  0  0  0  0
   -0.3255   -0.5450   -0.2120 C   0  0  0  0  0  0  0  0  0  0  0  0
   -0.8692   -0.5551   -1.5444 O   0  0  0  0  0  0  0  0  0  0  0  0
   -2.2337   -0.6454   -1.5931 C   0  0  0  0  0  0  0  0  0  0  0  0
   -2.7822   -1.0600   -2.8063 C   0  0  0  0  0  0  0  0  0  0  0  0
   -4.1628   -1.1913   -2.9308 C   0  0  0  0  0  0  0  0  0  0  0  0
   -4.6533   -1.6085   -4.1326 O   0  0  0  0  0  0  0  0  0  0  0  0
   -5.0094   -0.9102   -1.8625 C   0  0  0  0  0  0  0  0  0  0  0  0
   -4.4602   -0.4807   -0.6569 C   0  0  0  0  0  0  0  0  0  0  0  0
   -3.0742   -0.3338   -0.5235 C   0  0  0  0  0  0  0  0  0  0  0  0
   -2.4693    0.1608    0.7250 C   0  0  0  0  0  0  0  0  0  0  0  0
   -3.1706    0.2636    1.7306 O   0  0  0  0  0  0  0  0  0  0  0  0
   -0.9959    0.5244    0.6569 C   0  0  0  0  0  0  0  0  0  0  0  0
   -0.4445    0.5075    1.9820 O   0  0  0  0  0  0  0  0  0  0  0  0
   -0.5681    1.6786    2.6653 C   0  0  0  0  0  0  0  0  0  0  0  0
   -1.0446    2.7124    2.2200 O   0  0  0  0  0  0  0  0  0  0  0  0
    0.0052    1.5334    4.0414 C   0  0  0  0  0  0  0  0  0  0  0  0
   -5.3405   -0.2134    0.3570 O   0  0  0  0  0  0  0  0  0  0  0  0
    7.2275   -0.0050   -0.2890 H   0  0  0  0  0  0  0  0  0  0  0  0
    6.1165   -0.3242    1.0486 H   0  0  0  0  0  0  0  0  0  0  0  0
    6.1658   -1.4140   -0.3924 H   0  0  0  0  0  0  0  0  0  0  0  0
    4.1174   -1.5899    0.8042 H   0  0  0  0  0  0  0  0  0  0  0  0
    1.7174   -1.9566    0.9622 H   0  0  0  0  0  0  0  0  0  0  0  0
    1.0118    1.4080   -1.6618 H   0  0  0  0  0  0  0  0  0  0  0  0
    4.4764    1.9471   -1.8894 H   0  0  0  0  0  0  0  0  0  0  0  0
   -0.4780   -1.5451    0.2197 H   0  0  0  0  0  0  0  0  0  0  0  0
   -2.1374   -1.2896   -3.6510 H   0  0  0  0  0  0  0  0  0  0  0  0
   -5.6238   -1.6420   -4.0827 H   0  0  0  0  0  0  0  0  0  0  0  0
   -6.0866   -1.0139   -1.9490 H   0  0  0  0  0  0  0  0  0  0  0  0
   -0.9076    1.5138    0.1887 H   0  0  0  0  0  0  0  0  0  0  0  0
   -0.2930    2.3912    4.6508 H   0  0  0  0  0  0  0  0  0  0  0  0
   -0.3856    0.6291    4.5159 H   0  0  0  0  0  0  0  0  0  0  0  0
    1.0952    1.4942    3.9828 H   0  0  0  0  0  0  0  0  0  0  0  0
   -4.8250    0.0478    1.1544 H   0  0  0  0  0  0  0  0  0  0  0  0
  1  2  1  0
  2  3  1  0
  3  4  2  0
  4  5  1  0
  5  6  2  0
  6  7  1  0
  7  8  2  0
  8  9  1  0
  6 10  1  0
 10 11  1  0
 11 12  1  0
 12 13  2  0
 13 14  1  0
 14 15  1  0
 14 16  2  0
 16 17  1  0
 17 18  2  0
 18 19  1  0
 19 20  2  0
 19 21  1  0
 21 22  1  0
 22 23  1  0
 23 24  2  0
 23 25  1  0
 17 26  1  0
  8  3  1  0
 21 10  1  0
 18 12  1  0
  1 27  1  0
  1 28  1  0
  1 29  1  0
  4 30  1  0
  5 31  1  0
  7 32  1  0
  9 33  1  0
 10 34  1  0
 13 35  1  0
 15 36  1  0
 16 37  1  0
 21 38  1  0
 25 39  1  0
 25 40  1  0
 25 41  1  0
 26 42  1  0
M  END
