
     RDKit          3D

 24 24  0  0  0  0  0  0  0  0999 V2000
    3.2668   -0.6929    0.5587 O   0  0  0  0  0  0  0  0  0  0  0  0
    1.9967   -1.3282    0.3243 C   0  0  0  0  0  0  0  0  0  0  0  0
    0.8825   -0.2785    0.5179 C   0  0  0  0  0  0  0  0  0  0  0  0
    1.0399    0.3144    1.8077 O   0  0  0  0  0  0  0  0  0  0  0  0
    1.0839    0.7323   -0.4837 O   0  0  0  0  0  0  0  0  0  0  0  0
    0.1302    1.7982   -0.4132 C   0  0  0  0  0  0  0  0  0  0  0  0
   -1.3002    1.2883   -0.5682 C   0  0  0  0  0  0  0  0  0  0  0  0
   -1.5988    0.1632    0.4311 C   0  0  0  0  0  0  0  0  0  0  0  0
   -0.5147   -0.9223    0.3942 C   0  0  0  0  0  0  0  0  0  0  0  0
   -0.6434   -1.6627   -0.8355 O   0  0  0  0  0  0  0  0  0  0  0  0
   -2.8646   -0.4437    0.1070 O   0  0  0  0  0  0  0  0  0  0  0  0
   -1.5082    0.7834   -1.8996 O   0  0  0  0  0  0  0  0  0  0  0  0
    3.3145    0.0277   -0.1013 H   0  0  0  0  0  0  0  0  0  0  0  0
    2.0117   -1.7380   -0.6902 H   0  0  0  0  0  0  0  0  0  0  0  0
    1.9060   -2.1416    1.0504 H   0  0  0  0  0  0  0  0  0  0  0  0
    2.0017    0.2682    1.9843 H   0  0  0  0  0  0  0  0  0  0  0  0
    0.3704    2.4855   -1.2310 H   0  0  0  0  0  0  0  0  0  0  0  0
    0.2583    2.3425    0.5289 H   0  0  0  0  0  0  0  0  0  0  0  0
   -2.0162    2.1067   -0.4400 H   0  0  0  0  0  0  0  0  0  0  0  0
   -1.6728    0.5782    1.4425 H   0  0  0  0  0  0  0  0  0  0  0  0
   -0.6857   -1.6327    1.2119 H   0  0  0  0  0  0  0  0  0  0  0  0
   -1.5714   -1.9766   -0.8378 H   0  0  0  0  0  0  0  0  0  0  0  0
   -3.0639   -0.1679   -0.8128 H   0  0  0  0  0  0  0  0  0  0  0  0
   -0.8226    0.0965   -2.0455 H   0  0  0  0  0  0  0  0  0  0  0  0
  1  2  1  0
  2  3  1  0
  3  4  1  0
  3  5  1  0
  5  6  1  0
  6  7  1  0
  7  8  1  0
  8  9  1  0
  9 10  1  0
  8 11  1  0
  7 12  1  0
  9  3  1  0
  1 13  1  0
  2 14  1  0
  2 15  1  0
  4 16  1  0
  6 17  1  0
  6 18  1  0
  7 19  1  0
  8 20  1  0
  9 21  1  0
 10 22  1  0
 11 23  1  0
 12 24  1  0
M  END
