
     RDKit          3D

 44 43  0  0  0  0  0  0  0  0999 V2000
    4.3238    1.7017    0.3622 C   0  0  0  0  0  0  0  0  0  0  0  0
    3.2842    0.6828   -0.0752 C   0  0  0  0  0  0  0  0  0  0  0  0
    2.0497    1.3059   -0.7449 C   0  0  0  0  0  0  0  0  0  0  0  0
    1.1042    0.2467   -1.0134 O   0  0  0  0  0  0  0  0  0  0  0  0
    0.2365   -0.0665   -0.0084 C   0  0  0  0  0  0  0  0  0  0  0  0
    0.2258    0.4659    1.0966 O   0  0  0  0  0  0  0  0  0  0  0  0
   -0.7026   -1.1803   -0.4508 C   0  0  0  0  0  0  0  0  0  0  0  0
    0.0364   -2.5050   -0.4609 C   0  0  0  0  0  0  0  0  0  0  0  0
    0.1288   -3.2605    0.5007 O   0  0  0  0  0  0  0  0  0  0  0  0
    0.6025   -2.7329   -1.6814 O   0  0  0  0  0  0  0  0  0  0  0  0
    1.3305   -3.9591   -1.7683 C   0  0  0  0  0  0  0  0  0  0  0  0
   -1.8432   -1.2615    0.4718 N   0  0  0  0  0  0  0  0  0  0  0  0
   -2.8875   -0.3781    0.3559 C   0  0  0  0  0  0  0  0  0  0  0  0
   -3.0166    0.3637   -0.6170 O   0  0  0  0  0  0  0  0  0  0  0  0
   -3.8811   -0.3731    1.5417 C   0  0  0  0  0  0  0  0  0  0  0  0
   -3.3679    0.5480    2.6501 C   0  0  0  0  0  0  0  0  0  0  0  0
   -2.2262   -0.0836    3.3934 C   0  0  0  0  0  0  0  0  0  0  0  0
   -1.7844   -1.2099    3.2296 O   0  0  0  0  0  0  0  0  0  0  0  0
   -1.6904    0.7466    4.3080 O   0  0  0  0  0  0  0  0  0  0  0  0
   -5.1957    0.1151    1.0560 N   0  0  0  0  0  0  0  0  0  0  0  0
    2.3860    1.9696   -2.0889 C   0  0  0  0  0  0  0  0  0  0  0  0
    1.1546    2.5634   -2.7634 C   0  0  0  0  0  0  0  0  0  0  0  0
    3.8805    2.4597    1.0159 H   0  0  0  0  0  0  0  0  0  0  0  0
    5.1256    1.2037    0.9175 H   0  0  0  0  0  0  0  0  0  0  0  0
    4.7810    2.2045   -0.4947 H   0  0  0  0  0  0  0  0  0  0  0  0
    2.9680    0.1069    0.8036 H   0  0  0  0  0  0  0  0  0  0  0  0
    3.7443   -0.0485   -0.7516 H   0  0  0  0  0  0  0  0  0  0  0  0
    1.5983    2.0587   -0.0863 H   0  0  0  0  0  0  0  0  0  0  0  0
   -1.0950   -0.9570   -1.4490 H   0  0  0  0  0  0  0  0  0  0  0  0
    1.7123   -4.0540   -2.7893 H   0  0  0  0  0  0  0  0  0  0  0  0
    0.6743   -4.8115   -1.5636 H   0  0  0  0  0  0  0  0  0  0  0  0
    2.1806   -3.9474   -1.0781 H   0  0  0  0  0  0  0  0  0  0  0  0
   -1.6434   -1.6521    1.3970 H   0  0  0  0  0  0  0  0  0  0  0  0
   -4.0159   -1.3997    1.9008 H   0  0  0  0  0  0  0  0  0  0  0  0
   -4.1622    0.7402    3.3813 H   0  0  0  0  0  0  0  0  0  0  0  0
   -3.0261    1.5029    2.2335 H   0  0  0  0  0  0  0  0  0  0  0  0
   -0.9271    0.2544    4.6766 H   0  0  0  0  0  0  0  0  0  0  0  0
   -5.0298    0.9993    0.5632 H   0  0  0  0  0  0  0  0  0  0  0  0
   -5.5122   -0.5127    0.3145 H   0  0  0  0  0  0  0  0  0  0  0  0
    2.8257    1.2304   -2.7692 H   0  0  0  0  0  0  0  0  0  0  0  0
    3.1210    2.7686   -1.9470 H   0  0  0  0  0  0  0  0  0  0  0  0
    0.6706    3.3004   -2.1145 H   0  0  0  0  0  0  0  0  0  0  0  0
    1.4402    3.0655   -3.6937 H   0  0  0  0  0  0  0  0  0  0  0  0
    0.4217    1.7893   -3.0124 H   0  0  0  0  0  0  0  0  0  0  0  0
  1  2  1  0
  2  3  1  0
  3  4  1  0
  4  5  1  0
  5  6  2  0
  5  7  1  0
  7  8  1  0
  8  9  2  0
  8 10  1  0
 10 11  1  0
  7 12  1  0
 12 13  1  0
 13 14  2  0
 13 15  1  0
 15 16  1  0
 16 17  1  0
 17 18  2  0
 17 19  1  0
 15 20  1  0
  3 21  1  0
 21 22  1  0
  1 23  1  0
  1 24  1  0
  1 25  1  0
  2 26  1  0
  2 27  1  0
  3 28  1  0
  7 29  1  0
 11 30  1  0
 11 31  1  0
 11 32  1  0
 12 33  1  0
 15 34  1  0
 16 35  1  0
 16 36  1  0
 19 37  1  0
 20 38  1  0
 20 39  1  0
 21 40  1  0
 21 41  1  0
 22 42  1  0
 22 43  1  0
 22 44  1  0
M  END
