
     RDKit          3D

 48 48  0  0  0  0  0  0  0  0999 V2000
   -1.7186   -4.6440    2.5913 C   0  0  0  0  0  0  0  0  0  0  0  0
   -1.5470   -3.9474    1.3568 O   0  0  0  0  0  0  0  0  0  0  0  0
   -1.4707   -2.5924    1.4864 C   0  0  0  0  0  0  0  0  0  0  0  0
   -1.5345   -1.9858    2.5513 O   0  0  0  0  0  0  0  0  0  0  0  0
   -1.2771   -1.9288    0.1333 C   0  0  0  0  0  0  0  0  0  0  0  0
    0.2102   -1.7156   -0.1209 C   0  0  0  0  0  0  0  0  0  0  0  0
    1.0603   -2.5920   -0.0186 O   0  0  0  0  0  0  0  0  0  0  0  0
    0.4721   -0.4336   -0.5132 O   0  0  0  0  0  0  0  0  0  0  0  0
    1.8492   -0.1044   -0.7706 C   0  0  0  0  0  0  0  0  0  0  0  0
    1.8566    1.1055   -1.7075 C   0  0  0  0  0  0  0  0  0  0  0  0
    3.2696    1.6211   -1.9518 C   0  0  0  0  0  0  0  0  0  0  0  0
    3.9838    1.9397   -0.6405 C   0  0  0  0  0  0  0  0  0  0  0  0
    3.9840    0.7370    0.3128 C   0  0  0  0  0  0  0  0  0  0  0  0
    2.5571    0.2264    0.5475 C   0  0  0  0  0  0  0  0  0  0  0  0
    4.6516    1.1000    1.6378 C   0  0  0  0  0  0  0  0  0  0  0  0
   -2.0465   -0.6755    0.0991 N   0  0  0  0  0  0  0  0  0  0  0  0
   -3.3694   -0.6477   -0.2502 C   0  0  0  0  0  0  0  0  0  0  0  0
   -3.9651   -1.6520   -0.6365 O   0  0  0  0  0  0  0  0  0  0  0  0
   -4.0578    0.7355   -0.1227 C   0  0  0  0  0  0  0  0  0  0  0  0
   -3.5012    1.7221   -1.1509 C   0  0  0  0  0  0  0  0  0  0  0  0
   -2.2132    2.3354   -0.6770 C   0  0  0  0  0  0  0  0  0  0  0  0
   -1.5809    2.0356    0.3232 O   0  0  0  0  0  0  0  0  0  0  0  0
   -1.7667    3.2919   -1.5126 O   0  0  0  0  0  0  0  0  0  0  0  0
   -5.5148    0.5595   -0.3494 N   0  0  0  0  0  0  0  0  0  0  0  0
   -2.6538   -4.3436    3.0741 H   0  0  0  0  0  0  0  0  0  0  0  0
   -1.7701   -5.7141    2.3723 H   0  0  0  0  0  0  0  0  0  0  0  0
   -0.8651   -4.4664    3.2530 H   0  0  0  0  0  0  0  0  0  0  0  0
   -1.6638   -2.5785   -0.6597 H   0  0  0  0  0  0  0  0  0  0  0  0
    2.3502   -0.9404   -1.2761 H   0  0  0  0  0  0  0  0  0  0  0  0
    1.2351    1.9061   -1.2850 H   0  0  0  0  0  0  0  0  0  0  0  0
    1.3845    0.8369   -2.6603 H   0  0  0  0  0  0  0  0  0  0  0  0
    3.8429    0.8687   -2.5069 H   0  0  0  0  0  0  0  0  0  0  0  0
    3.2313    2.5196   -2.5779 H   0  0  0  0  0  0  0  0  0  0  0  0
    3.4910    2.7954   -0.1611 H   0  0  0  0  0  0  0  0  0  0  0  0
    5.0143    2.2468   -0.8555 H   0  0  0  0  0  0  0  0  0  0  0  0
    4.5680   -0.0702   -0.1490 H   0  0  0  0  0  0  0  0  0  0  0  0
    1.9697    0.9731    1.0991 H   0  0  0  0  0  0  0  0  0  0  0  0
    2.5783   -0.6620    1.1904 H   0  0  0  0  0  0  0  0  0  0  0  0
    4.1112    1.9035    2.1497 H   0  0  0  0  0  0  0  0  0  0  0  0
    5.6814    1.4348    1.4747 H   0  0  0  0  0  0  0  0  0  0  0  0
    4.6831    0.2335    2.3067 H   0  0  0  0  0  0  0  0  0  0  0  0
   -1.6408    0.1296    0.5793 H   0  0  0  0  0  0  0  0  0  0  0  0
   -3.9218    1.0958    0.9034 H   0  0  0  0  0  0  0  0  0  0  0  0
   -4.2081    2.5482   -1.2979 H   0  0  0  0  0  0  0  0  0  0  0  0
   -3.3214    1.2314   -2.1142 H   0  0  0  0  0  0  0  0  0  0  0  0
   -0.9377    3.6202   -1.1058 H   0  0  0  0  0  0  0  0  0  0  0  0
   -5.8574   -0.1065    0.3486 H   0  0  0  0  0  0  0  0  0  0  0  0
   -5.6323    0.0474   -1.2295 H   0  0  0  0  0  0  0  0  0  0  0  0
  1  2  1  0
  2  3  1  0
  3  4  2  0
  3  5  1  0
  5  6  1  0
  6  7  2  0
  6  8  1  0
  8  9  1  0
  9 10  1  0
 10 11  1  0
 11 12  1  0
 12 13  1  0
 13 14  1  0
 13 15  1  0
  5 16  1  0
 16 17  1  0
 17 18  2  0
 17 19  1  0
 19 20  1  0
 20 21  1  0
 21 22  2  0
 21 23  1  0
 19 24  1  0
 14  9  1  0
  1 25  1  0
  1 26  1  0
  1 27  1  0
  5 28  1  0
  9 29  1  0
 10 30  1  0
 10 31  1  0
 11 32  1  0
 11 33  1  0
 12 34  1  0
 12 35  1  0
 13 36  1  0
 14 37  1  0
 14 38  1  0
 15 39  1  0
 15 40  1  0
 15 41  1  0
 16 42  1  0
 19 43  1  0
 20 44  1  0
 20 45  1  0
 23 46  1  0
 24 47  1  0
 24 48  1  0
M  END
