
     RDKit          3D

 54 54  0  0  0  0  0  0  0  0999 V2000
    2.7021   -0.4298   -5.5244 C   0  0  0  0  0  0  0  0  0  0  0  0
    2.5563   -1.0494   -4.2453 O   0  0  0  0  0  0  0  0  0  0  0  0
    2.3582   -0.1716   -3.2206 C   0  0  0  0  0  0  0  0  0  0  0  0
    2.3244    1.0486   -3.3416 O   0  0  0  0  0  0  0  0  0  0  0  0
    2.1774   -0.9027   -1.9035 C   0  0  0  0  0  0  0  0  0  0  0  0
    0.6853   -1.0848   -1.6414 C   0  0  0  0  0  0  0  0  0  0  0  0
   -0.0734   -1.6725   -2.4062 O   0  0  0  0  0  0  0  0  0  0  0  0
    0.2931   -0.5048   -0.4675 O   0  0  0  0  0  0  0  0  0  0  0  0
   -1.1073   -0.6040   -0.1466 C   0  0  0  0  0  0  0  0  0  0  0  0
   -1.9041    0.4267   -0.9626 C   0  0  0  0  0  0  0  0  0  0  0  0
   -3.1431    0.9713   -0.2305 C   0  0  0  0  0  0  0  0  0  0  0  0
   -4.1908    1.4585   -1.2314 C   0  0  0  0  0  0  0  0  0  0  0  0
   -3.7249   -0.0877    0.7129 C   0  0  0  0  0  0  0  0  0  0  0  0
   -2.7247   -0.4884    1.8301 C   0  0  0  0  0  0  0  0  0  0  0  0
   -1.2585   -0.3511    1.3536 C   0  0  0  0  0  0  0  0  0  0  0  0
   -2.9292    0.4100    3.0653 C   0  0  0  0  0  0  0  0  0  0  0  0
   -3.0069   -1.9443    2.2472 C   0  0  0  0  0  0  0  0  0  0  0  0
    2.8775   -0.1468   -0.8546 N   0  0  0  0  0  0  0  0  0  0  0  0
    3.3397   -0.7705    0.2757 C   0  0  0  0  0  0  0  0  0  0  0  0
    3.3062   -1.9927    0.4142 O   0  0  0  0  0  0  0  0  0  0  0  0
    3.9030    0.1701    1.3669 C   0  0  0  0  0  0  0  0  0  0  0  0
    2.7639    0.7376    2.2148 C   0  0  0  0  0  0  0  0  0  0  0  0
    2.0761    1.8698    1.5051 C   0  0  0  0  0  0  0  0  0  0  0  0
    2.2806    2.2504    0.3630 O   0  0  0  0  0  0  0  0  0  0  0  0
    1.1426    2.4628    2.2724 O   0  0  0  0  0  0  0  0  0  0  0  0
    4.8258   -0.6098    2.2287 N   0  0  0  0  0  0  0  0  0  0  0  0
    3.5860    0.2177   -5.5378 H   0  0  0  0  0  0  0  0  0  0  0  0
    2.8382   -1.2180   -6.2692 H   0  0  0  0  0  0  0  0  0  0  0  0
    1.8013    0.1368   -5.7811 H   0  0  0  0  0  0  0  0  0  0  0  0
    2.6362   -1.8965   -1.9612 H   0  0  0  0  0  0  0  0  0  0  0  0
   -1.4601   -1.6206   -0.3651 H   0  0  0  0  0  0  0  0  0  0  0  0
   -1.2625    1.2683   -1.2558 H   0  0  0  0  0  0  0  0  0  0  0  0
   -2.2004   -0.0489   -1.9069 H   0  0  0  0  0  0  0  0  0  0  0  0
   -2.8370    1.8391    0.3685 H   0  0  0  0  0  0  0  0  0  0  0  0
   -4.5445    0.6381   -1.8677 H   0  0  0  0  0  0  0  0  0  0  0  0
   -3.7727    2.2367   -1.8805 H   0  0  0  0  0  0  0  0  0  0  0  0
   -5.0582    1.8829   -0.7120 H   0  0  0  0  0  0  0  0  0  0  0  0
   -3.9964   -0.9704    0.1166 H   0  0  0  0  0  0  0  0  0  0  0  0
   -4.6611    0.2738    1.1579 H   0  0  0  0  0  0  0  0  0  0  0  0
   -0.8773    0.6560    1.5721 H   0  0  0  0  0  0  0  0  0  0  0  0
   -0.5990   -1.0268    1.9146 H   0  0  0  0  0  0  0  0  0  0  0  0
   -3.9450    0.3085    3.4651 H   0  0  0  0  0  0  0  0  0  0  0  0
   -2.2289    0.1478    3.8665 H   0  0  0  0  0  0  0  0  0  0  0  0
   -2.7739    1.4668    2.8203 H   0  0  0  0  0  0  0  0  0  0  0  0
   -2.3576   -2.2543    3.0740 H   0  0  0  0  0  0  0  0  0  0  0  0
   -4.0459   -2.0658    2.5758 H   0  0  0  0  0  0  0  0  0  0  0  0
   -2.8380   -2.6369    1.4150 H   0  0  0  0  0  0  0  0  0  0  0  0
    2.7252    0.8649   -0.8347 H   0  0  0  0  0  0  0  0  0  0  0  0
    4.4861    0.9637    0.8866 H   0  0  0  0  0  0  0  0  0  0  0  0
    3.1615    1.1436    3.1526 H   0  0  0  0  0  0  0  0  0  0  0  0
    2.0186   -0.0314    2.4441 H   0  0  0  0  0  0  0  0  0  0  0  0
    0.7631    3.1705    1.7098 H   0  0  0  0  0  0  0  0  0  0  0  0
    4.3264   -1.4557    2.5255 H   0  0  0  0  0  0  0  0  0  0  0  0
    5.5665   -0.9847    1.6338 H   0  0  0  0  0  0  0  0  0  0  0  0
  1  2  1  0
  2  3  1  0
  3  4  2  0
  3  5  1  0
  5  6  1  0
  6  7  2  0
  6  8  1  0
  8  9  1  0
  9 10  1  0
 10 11  1  0
 11 12  1  0
 11 13  1  0
 13 14  1  0
 14 15  1  0
 14 16  1  0
 14 17  1  0
  5 18  1  0
 18 19  1  0
 19 20  2  0
 19 21  1  0
 21 22  1  0
 22 23  1  0
 23 24  2  0
 23 25  1  0
 21 26  1  0
 15  9  1  0
  1 27  1  0
  1 28  1  0
  1 29  1  0
  5 30  1  0
  9 31  1  0
 10 32  1  0
 10 33  1  0
 11 34  1  0
 12 35  1  0
 12 36  1  0
 12 37  1  0
 13 38  1  0
 13 39  1  0
 15 40  1  0
 15 41  1  0
 16 42  1  0
 16 43  1  0
 16 44  1  0
 17 45  1  0
 17 46  1  0
 17 47  1  0
 18 48  1  0
 21 49  1  0
 22 50  1  0
 22 51  1  0
 25 52  1  0
 26 53  1  0
 26 54  1  0
M  END
