
     RDKit          3D

 58 59  0  0  0  0  0  0  0  0999 V2000
    4.6147    1.0435    3.9765 C   0  0  0  0  0  0  0  0  0  0  0  0
    4.2534    0.5191    2.6980 O   0  0  0  0  0  0  0  0  0  0  0  0
    2.9211    0.5968    2.4136 C   0  0  0  0  0  0  0  0  0  0  0  0
    2.0774    1.0493    3.1808 O   0  0  0  0  0  0  0  0  0  0  0  0
    2.5989   -0.0016    1.0510 C   0  0  0  0  0  0  0  0  0  0  0  0
    1.6550    0.9307    0.3031 C   0  0  0  0  0  0  0  0  0  0  0  0
    2.0461    1.8893   -0.3528 O   0  0  0  0  0  0  0  0  0  0  0  0
    0.3773    0.5269    0.5118 O   0  0  0  0  0  0  0  0  0  0  0  0
   -0.5942    1.1650   -0.1729 C   0  0  0  0  0  0  0  0  0  0  0  0
   -0.4860    2.0458   -1.0090 O   0  0  0  0  0  0  0  0  0  0  0  0
   -1.7777    0.6198    0.2221 O   0  0  0  0  0  0  0  0  0  0  0  0
   -2.9423    1.1176   -0.4460 C   0  0  0  0  0  0  0  0  0  0  0  0
   -3.0828    0.5226   -1.8642 C   0  0  0  0  0  0  0  0  0  0  0  0
   -4.4728   -0.1532   -1.8250 C   0  0  0  0  0  0  0  0  0  0  0  0
   -4.5364   -0.7614   -0.4019 C   0  0  0  0  0  0  0  0  0  0  0  0
   -4.2542    0.6280    0.2517 C   0  0  0  0  0  0  0  0  0  0  0  0
   -4.2082    0.6681    1.7675 C   0  0  0  0  0  0  0  0  0  0  0  0
   -5.3880    1.5127   -0.3428 C   0  0  0  0  0  0  0  0  0  0  0  0
   -5.5170    0.9837   -1.7817 C   0  0  0  0  0  0  0  0  0  0  0  0
   -3.4917   -1.8652   -0.1444 C   0  0  0  0  0  0  0  0  0  0  0  0
   -5.9019   -1.3889   -0.0459 C   0  0  0  0  0  0  0  0  0  0  0  0
    3.7866   -0.2636    0.2276 N   0  0  0  0  0  0  0  0  0  0  0  0
    3.7301   -1.1244   -0.8363 C   0  0  0  0  0  0  0  0  0  0  0  0
    2.7166   -1.7771   -1.0837 O   0  0  0  0  0  0  0  0  0  0  0  0
    5.0111   -1.2016   -1.7055 C   0  0  0  0  0  0  0  0  0  0  0  0
    6.1696   -1.8286   -0.9266 C   0  0  0  0  0  0  0  0  0  0  0  0
    6.9218   -0.7732   -0.1672 C   0  0  0  0  0  0  0  0  0  0  0  0
    6.4752    0.2958    0.2222 O   0  0  0  0  0  0  0  0  0  0  0  0
    8.1867   -1.1371    0.1095 O   0  0  0  0  0  0  0  0  0  0  0  0
    4.7158   -2.0267   -2.9049 N   0  0  0  0  0  0  0  0  0  0  0  0
    4.1362    0.4656    4.7709 H   0  0  0  0  0  0  0  0  0  0  0  0
    4.3467    2.1019    4.0468 H   0  0  0  0  0  0  0  0  0  0  0  0
    5.6995    0.9515    4.0869 H   0  0  0  0  0  0  0  0  0  0  0  0
    2.1087   -0.9678    1.2221 H   0  0  0  0  0  0  0  0  0  0  0  0
   -2.9053    2.2132   -0.4657 H   0  0  0  0  0  0  0  0  0  0  0  0
   -3.0389    1.3031   -2.6294 H   0  0  0  0  0  0  0  0  0  0  0  0
   -2.2932   -0.1996   -2.0909 H   0  0  0  0  0  0  0  0  0  0  0  0
   -4.6334   -0.8542   -2.6469 H   0  0  0  0  0  0  0  0  0  0  0  0
   -3.9621    1.6767    2.1187 H   0  0  0  0  0  0  0  0  0  0  0  0
   -5.1744    0.3941    2.2057 H   0  0  0  0  0  0  0  0  0  0  0  0
   -3.4557   -0.0193    2.1681 H   0  0  0  0  0  0  0  0  0  0  0  0
   -5.1396    2.5779   -0.3275 H   0  0  0  0  0  0  0  0  0  0  0  0
   -6.3326    1.3967    0.1997 H   0  0  0  0  0  0  0  0  0  0  0  0
   -5.3154    1.7643   -2.5213 H   0  0  0  0  0  0  0  0  0  0  0  0
   -6.5276    0.6066   -1.9723 H   0  0  0  0  0  0  0  0  0  0  0  0
   -3.7198   -2.7537   -0.7533 H   0  0  0  0  0  0  0  0  0  0  0  0
   -2.4634   -1.5889   -0.3870 H   0  0  0  0  0  0  0  0  0  0  0  0
   -3.5034   -2.1732    0.9097 H   0  0  0  0  0  0  0  0  0  0  0  0
   -6.7600   -0.7264   -0.1800 H   0  0  0  0  0  0  0  0  0  0  0  0
   -6.0906   -2.2720   -0.6676 H   0  0  0  0  0  0  0  0  0  0  0  0
   -5.9149   -1.7112    1.0008 H   0  0  0  0  0  0  0  0  0  0  0  0
    4.5873    0.3651    0.3264 H   0  0  0  0  0  0  0  0  0  0  0  0
    5.2532   -0.1886   -2.0515 H   0  0  0  0  0  0  0  0  0  0  0  0
    6.8787   -2.2938   -1.6224 H   0  0  0  0  0  0  0  0  0  0  0  0
    5.8238   -2.5878   -0.2175 H   0  0  0  0  0  0  0  0  0  0  0  0
    8.5664   -0.3885    0.6163 H   0  0  0  0  0  0  0  0  0  0  0  0
    4.0307   -1.5204   -3.4705 H   0  0  0  0  0  0  0  0  0  0  0  0
    4.1948   -2.8542   -2.5929 H   0  0  0  0  0  0  0  0  0  0  0  0
  1  2  1  0
  2  3  1  0
  3  4  2  0
  3  5  1  0
  5  6  1  0
  6  7  2  0
  6  8  1  0
  8  9  1  0
  9 10  2  0
  9 11  1  0
 11 12  1  0
 12 13  1  0
 13 14  1  0
 14 15  1  0
 15 16  1  0
 16 17  1  0
 16 18  1  0
 18 19  1  0
 15 20  1  0
 15 21  1  0
  5 22  1  0
 22 23  1  0
 23 24  2  0
 23 25  1  0
 25 26  1  0
 26 27  1  0
 27 28  2  0
 27 29  1  0
 25 30  1  0
 16 12  1  0
 19 14  1  0
  1 31  1  0
  1 32  1  0
  1 33  1  0
  5 34  1  0
 12 35  1  0
 13 36  1  0
 13 37  1  0
 14 38  1  0
 17 39  1  0
 17 40  1  0
 17 41  1  0
 18 42  1  0
 18 43  1  0
 19 44  1  0
 19 45  1  0
 20 46  1  0
 20 47  1  0
 20 48  1  0
 21 49  1  0
 21 50  1  0
 21 51  1  0
 22 52  1  0
 25 53  1  0
 26 54  1  0
 26 55  1  0
 29 56  1  0
 30 57  1  0
 30 58  1  0
M  END
