
     RDKit          3D

 44 43  0  0  0  0  0  0  0  0999 V2000
   -1.1607   -0.0709   -4.5850 C   0  0  0  0  0  0  0  0  0  0  0  0
   -2.2569   -0.0127   -3.5377 C   0  0  0  0  0  0  0  0  0  0  0  0
   -1.7738    0.6358   -2.3529 O   0  0  0  0  0  0  0  0  0  0  0  0
   -1.1305   -0.1622   -1.4540 C   0  0  0  0  0  0  0  0  0  0  0  0
   -0.9523   -1.3696   -1.5860 O   0  0  0  0  0  0  0  0  0  0  0  0
   -0.6651    0.6466   -0.2518 C   0  0  0  0  0  0  0  0  0  0  0  0
   -1.7363    0.5877    0.8312 C   0  0  0  0  0  0  0  0  0  0  0  0
   -2.9025    0.9159    0.6508 O   0  0  0  0  0  0  0  0  0  0  0  0
   -1.2290    0.1372    2.0137 O   0  0  0  0  0  0  0  0  0  0  0  0
   -2.0675    0.0022    3.1902 C   0  0  0  0  0  0  0  0  0  0  0  0
   -2.6210    1.3592    3.6376 C   0  0  0  0  0  0  0  0  0  0  0  0
   -1.1239   -0.5274    4.2806 C   0  0  0  0  0  0  0  0  0  0  0  0
   -3.1806   -1.0263    2.9637 C   0  0  0  0  0  0  0  0  0  0  0  0
    0.6360    0.1313    0.1888 N   0  0  0  0  0  0  0  0  0  0  0  0
    1.7857    0.4236   -0.5088 C   0  0  0  0  0  0  0  0  0  0  0  0
    1.8264    1.2536   -1.4098 O   0  0  0  0  0  0  0  0  0  0  0  0
    3.0006   -0.4021   -0.0273 C   0  0  0  0  0  0  0  0  0  0  0  0
    4.1355   -0.3430   -1.0473 C   0  0  0  0  0  0  0  0  0  0  0  0
    4.7907    1.0102   -1.0281 C   0  0  0  0  0  0  0  0  0  0  0  0
    4.8375    1.7892   -0.0913 O   0  0  0  0  0  0  0  0  0  0  0  0
    5.4241    1.2854   -2.1847 O   0  0  0  0  0  0  0  0  0  0  0  0
    2.5475   -1.8028    0.2000 N   0  0  0  0  0  0  0  0  0  0  0  0
   -1.5345   -0.5115   -5.5136 H   0  0  0  0  0  0  0  0  0  0  0  0
   -0.3116   -0.6653   -4.2331 H   0  0  0  0  0  0  0  0  0  0  0  0
   -0.7794    0.9331   -4.7984 H   0  0  0  0  0  0  0  0  0  0  0  0
   -3.0930    0.5866   -3.9125 H   0  0  0  0  0  0  0  0  0  0  0  0
   -2.6512   -1.0103   -3.3128 H   0  0  0  0  0  0  0  0  0  0  0  0
   -0.5213    1.6949   -0.5365 H   0  0  0  0  0  0  0  0  0  0  0  0
   -3.1144    1.2861    4.6128 H   0  0  0  0  0  0  0  0  0  0  0  0
   -1.8186    2.1022    3.7077 H   0  0  0  0  0  0  0  0  0  0  0  0
   -3.3545    1.7557    2.9293 H   0  0  0  0  0  0  0  0  0  0  0  0
   -1.6440   -0.6747    5.2330 H   0  0  0  0  0  0  0  0  0  0  0  0
   -0.6767   -1.4819    3.9789 H   0  0  0  0  0  0  0  0  0  0  0  0
   -0.2903    0.1655    4.4448 H   0  0  0  0  0  0  0  0  0  0  0  0
   -3.7098   -1.2523    3.8958 H   0  0  0  0  0  0  0  0  0  0  0  0
   -3.9243   -0.6725    2.2434 H   0  0  0  0  0  0  0  0  0  0  0  0
   -2.7715   -1.9592    2.5599 H   0  0  0  0  0  0  0  0  0  0  0  0
    0.6568   -0.7633    0.6771 H   0  0  0  0  0  0  0  0  0  0  0  0
    3.3126    0.0105    0.9392 H   0  0  0  0  0  0  0  0  0  0  0  0
    4.9123   -1.0797   -0.8124 H   0  0  0  0  0  0  0  0  0  0  0  0
    3.7572   -0.5457   -2.0564 H   0  0  0  0  0  0  0  0  0  0  0  0
    5.7806    2.1892   -2.0536 H   0  0  0  0  0  0  0  0  0  0  0  0
    3.3449   -2.3653    0.4990 H   0  0  0  0  0  0  0  0  0  0  0  0
    2.2468   -2.2028   -0.6930 H   0  0  0  0  0  0  0  0  0  0  0  0
  1  2  1  0
  2  3  1  0
  3  4  1  0
  4  5  2  0
  4  6  1  0
  6  7  1  0
  7  8  2  0
  7  9  1  0
  9 10  1  0
 10 11  1  0
 10 12  1  0
 10 13  1  0
  6 14  1  0
 14 15  1  0
 15 16  2  0
 15 17  1  0
 17 18  1  0
 18 19  1  0
 19 20  2  0
 19 21  1  0
 17 22  1  0
  1 23  1  0
  1 24  1  0
  1 25  1  0
  2 26  1  0
  2 27  1  0
  6 28  1  0
 11 29  1  0
 11 30  1  0
 11 31  1  0
 12 32  1  0
 12 33  1  0
 12 34  1  0
 13 35  1  0
 13 36  1  0
 13 37  1  0
 14 38  1  0
 17 39  1  0
 18 40  1  0
 18 41  1  0
 21 42  1  0
 22 43  1  0
 22 44  1  0
M  END
