
     RDKit          3D

 45 45  0  0  0  0  0  0  0  0999 V2000
   -1.1204    5.3888   -2.7384 C   0  0  0  0  0  0  0  0  0  0  0  0
   -1.2874    3.8828   -2.7947 C   0  0  0  0  0  0  0  0  0  0  0  0
   -1.0129    3.3537   -1.4918 O   0  0  0  0  0  0  0  0  0  0  0  0
   -1.1158    1.9975   -1.4011 C   0  0  0  0  0  0  0  0  0  0  0  0
   -1.4398    1.2564   -2.3234 O   0  0  0  0  0  0  0  0  0  0  0  0
   -0.7707    1.5200   -0.0026 C   0  0  0  0  0  0  0  0  0  0  0  0
    0.7063    1.1358    0.0466 C   0  0  0  0  0  0  0  0  0  0  0  0
    1.6139    1.8659   -0.3375 O   0  0  0  0  0  0  0  0  0  0  0  0
    0.8997   -0.1015    0.5941 O   0  0  0  0  0  0  0  0  0  0  0  0
    2.2602   -0.5213    0.7014 C   0  0  0  0  0  0  0  0  0  0  0  0
    2.7850   -1.0973   -0.6079 C   0  0  0  0  0  0  0  0  0  0  0  0
    3.9468   -1.9900   -0.1878 C   0  0  0  0  0  0  0  0  0  0  0  0
    3.6851   -2.3678    1.2714 C   0  0  0  0  0  0  0  0  0  0  0  0
    2.3574   -1.7189    1.6376 C   0  0  0  0  0  0  0  0  0  0  0  0
   -1.6827    0.4238    0.3554 N   0  0  0  0  0  0  0  0  0  0  0  0
   -1.9688    0.1438    1.6671 C   0  0  0  0  0  0  0  0  0  0  0  0
   -1.6043    0.8687    2.5915 O   0  0  0  0  0  0  0  0  0  0  0  0
   -2.7788   -1.1538    1.9007 C   0  0  0  0  0  0  0  0  0  0  0  0
   -1.8445   -2.3645    1.9217 C   0  0  0  0  0  0  0  0  0  0  0  0
   -1.4592   -2.7775    0.5297 C   0  0  0  0  0  0  0  0  0  0  0  0
   -1.6916   -2.1724   -0.5045 O   0  0  0  0  0  0  0  0  0  0  0  0
   -0.7707   -3.9338    0.5108 O   0  0  0  0  0  0  0  0  0  0  0  0
   -3.4784   -1.0433    3.2048 N   0  0  0  0  0  0  0  0  0  0  0  0
   -1.3164    5.8402   -3.7151 H   0  0  0  0  0  0  0  0  0  0  0  0
   -1.8048    5.8251   -2.0034 H   0  0  0  0  0  0  0  0  0  0  0  0
   -0.1055    5.6532   -2.4241 H   0  0  0  0  0  0  0  0  0  0  0  0
   -2.3143    3.6351   -3.0857 H   0  0  0  0  0  0  0  0  0  0  0  0
   -0.5845    3.4598   -3.5207 H   0  0  0  0  0  0  0  0  0  0  0  0
   -0.9299    2.3325    0.7155 H   0  0  0  0  0  0  0  0  0  0  0  0
    2.9008    0.2886    1.0745 H   0  0  0  0  0  0  0  0  0  0  0  0
    3.0964   -0.3188   -1.3113 H   0  0  0  0  0  0  0  0  0  0  0  0
    2.0068   -1.6873   -1.1082 H   0  0  0  0  0  0  0  0  0  0  0  0
    4.8958   -1.4479   -0.2668 H   0  0  0  0  0  0  0  0  0  0  0  0
    4.0194   -2.8735   -0.8296 H   0  0  0  0  0  0  0  0  0  0  0  0
    3.6538   -3.4526    1.4132 H   0  0  0  0  0  0  0  0  0  0  0  0
    4.4886   -1.9754    1.9055 H   0  0  0  0  0  0  0  0  0  0  0  0
    1.5292   -2.4157    1.4645 H   0  0  0  0  0  0  0  0  0  0  0  0
    2.3111   -1.4246    2.6907 H   0  0  0  0  0  0  0  0  0  0  0  0
   -1.8038   -0.3145   -0.3428 H   0  0  0  0  0  0  0  0  0  0  0  0
   -3.5411   -1.2447    1.1183 H   0  0  0  0  0  0  0  0  0  0  0  0
   -2.3544   -3.2206    2.3807 H   0  0  0  0  0  0  0  0  0  0  0  0
   -0.9296   -2.1499    2.4856 H   0  0  0  0  0  0  0  0  0  0  0  0
   -0.5788   -4.1014   -0.4360 H   0  0  0  0  0  0  0  0  0  0  0  0
   -4.0889   -0.2238    3.1660 H   0  0  0  0  0  0  0  0  0  0  0  0
   -2.7782   -0.7785    3.9063 H   0  0  0  0  0  0  0  0  0  0  0  0
  1  2  1  0
  2  3  1  0
  3  4  1  0
  4  5  2  0
  4  6  1  0
  6  7  1  0
  7  8  2  0
  7  9  1  0
  9 10  1  0
 10 11  1  0
 11 12  1  0
 12 13  1  0
 13 14  1  0
  6 15  1  0
 15 16  1  0
 16 17  2  0
 16 18  1  0
 18 19  1  0
 19 20  1  0
 20 21  2  0
 20 22  1  0
 18 23  1  0
 14 10  1  0
  1 24  1  0
  1 25  1  0
  1 26  1  0
  2 27  1  0
  2 28  1  0
  6 29  1  0
 10 30  1  0
 11 31  1  0
 11 32  1  0
 12 33  1  0
 12 34  1  0
 13 35  1  0
 13 36  1  0
 14 37  1  0
 14 38  1  0
 15 39  1  0
 18 40  1  0
 19 41  1  0
 19 42  1  0
 22 43  1  0
 23 44  1  0
 23 45  1  0
M  END
