
     RDKit          3D

 48 48  0  0  0  0  0  0  0  0999 V2000
    1.3184    5.6649    0.5208 C   0  0  0  0  0  0  0  0  0  0  0  0
    1.5929    4.2173    0.8783 C   0  0  0  0  0  0  0  0  0  0  0  0
    0.9369    3.3860   -0.0862 O   0  0  0  0  0  0  0  0  0  0  0  0
    1.1008    2.0484    0.1171 C   0  0  0  0  0  0  0  0  0  0  0  0
    1.7409    1.5534    1.0407 O   0  0  0  0  0  0  0  0  0  0  0  0
    0.3708    1.2456   -0.9502 C   0  0  0  0  0  0  0  0  0  0  0  0
   -1.0496    0.9596   -0.4780 C   0  0  0  0  0  0  0  0  0  0  0  0
   -1.8412    1.8221   -0.1162 O   0  0  0  0  0  0  0  0  0  0  0  0
   -1.3349   -0.3754   -0.5215 O   0  0  0  0  0  0  0  0  0  0  0  0
   -2.6468   -0.7686   -0.0782 C   0  0  0  0  0  0  0  0  0  0  0  0
   -2.6640   -0.8852    1.4489 C   0  0  0  0  0  0  0  0  0  0  0  0
   -3.9847   -1.4558    1.9554 C   0  0  0  0  0  0  0  0  0  0  0  0
   -4.3095   -2.7931    1.2953 C   0  0  0  0  0  0  0  0  0  0  0  0
   -4.2834   -2.6920   -0.2274 C   0  0  0  0  0  0  0  0  0  0  0  0
   -2.9620   -2.1186   -0.7276 C   0  0  0  0  0  0  0  0  0  0  0  0
    1.1398    0.0238   -1.2291 N   0  0  0  0  0  0  0  0  0  0  0  0
    2.2753    0.0646   -1.9958 C   0  0  0  0  0  0  0  0  0  0  0  0
    2.6144    1.0705   -2.6164 O   0  0  0  0  0  0  0  0  0  0  0  0
    3.1044   -1.2419   -2.0063 C   0  0  0  0  0  0  0  0  0  0  0  0
    3.9977   -1.3090   -0.7660 C   0  0  0  0  0  0  0  0  0  0  0  0
    3.2074   -1.6726    0.4597 C   0  0  0  0  0  0  0  0  0  0  0  0
    2.0063   -1.8861    0.5189 O   0  0  0  0  0  0  0  0  0  0  0  0
    3.9777   -1.7357    1.5614 O   0  0  0  0  0  0  0  0  0  0  0  0
    3.9453   -1.2594   -3.2285 N   0  0  0  0  0  0  0  0  0  0  0  0
    1.6845    5.8894   -0.4864 H   0  0  0  0  0  0  0  0  0  0  0  0
    0.2416    5.8638    0.5199 H   0  0  0  0  0  0  0  0  0  0  0  0
    1.8020    6.3411    1.2313 H   0  0  0  0  0  0  0  0  0  0  0  0
    1.2013    4.0022    1.8787 H   0  0  0  0  0  0  0  0  0  0  0  0
    2.6720    4.0283    0.8552 H   0  0  0  0  0  0  0  0  0  0  0  0
    0.3173    1.8202   -1.8815 H   0  0  0  0  0  0  0  0  0  0  0  0
   -3.3944   -0.0384   -0.4149 H   0  0  0  0  0  0  0  0  0  0  0  0
   -2.4863    0.0954    1.9056 H   0  0  0  0  0  0  0  0  0  0  0  0
   -1.8312   -1.5200    1.7793 H   0  0  0  0  0  0  0  0  0  0  0  0
   -3.9388   -1.5832    3.0427 H   0  0  0  0  0  0  0  0  0  0  0  0
   -4.7923   -0.7422    1.7508 H   0  0  0  0  0  0  0  0  0  0  0  0
   -3.5821   -3.5465    1.6225 H   0  0  0  0  0  0  0  0  0  0  0  0
   -5.2960   -3.1376    1.6253 H   0  0  0  0  0  0  0  0  0  0  0  0
   -5.1093   -2.0540   -0.5649 H   0  0  0  0  0  0  0  0  0  0  0  0
   -4.4454   -3.6831   -0.6656 H   0  0  0  0  0  0  0  0  0  0  0  0
   -2.9908   -2.0052   -1.8182 H   0  0  0  0  0  0  0  0  0  0  0  0
   -2.1475   -2.8266   -0.5250 H   0  0  0  0  0  0  0  0  0  0  0  0
    1.0288   -0.7437   -0.5634 H   0  0  0  0  0  0  0  0  0  0  0  0
    2.4205   -2.0971   -2.0568 H   0  0  0  0  0  0  0  0  0  0  0  0
    4.7634   -2.0834   -0.8960 H   0  0  0  0  0  0  0  0  0  0  0  0
    4.4901   -0.3460   -0.5870 H   0  0  0  0  0  0  0  0  0  0  0  0
    3.3584   -1.9227    2.2977 H   0  0  0  0  0  0  0  0  0  0  0  0
    4.4564   -0.3707   -3.2615 H   0  0  0  0  0  0  0  0  0  0  0  0
    3.3249   -1.2028   -4.0394 H   0  0  0  0  0  0  0  0  0  0  0  0
  1  2  1  0
  2  3  1  0
  3  4  1  0
  4  5  2  0
  4  6  1  0
  6  7  1  0
  7  8  2  0
  7  9  1  0
  9 10  1  0
 10 11  1  0
 11 12  1  0
 12 13  1  0
 13 14  1  0
 14 15  1  0
  6 16  1  0
 16 17  1  0
 17 18  2  0
 17 19  1  0
 19 20  1  0
 20 21  1  0
 21 22  2  0
 21 23  1  0
 19 24  1  0
 15 10  1  0
  1 25  1  0
  1 26  1  0
  1 27  1  0
  2 28  1  0
  2 29  1  0
  6 30  1  0
 10 31  1  0
 11 32  1  0
 11 33  1  0
 12 34  1  0
 12 35  1  0
 13 36  1  0
 13 37  1  0
 14 38  1  0
 14 39  1  0
 15 40  1  0
 15 41  1  0
 16 42  1  0
 19 43  1  0
 20 44  1  0
 20 45  1  0
 23 46  1  0
 24 47  1  0
 24 48  1  0
M  END
