
     RDKit          3D

 51 51  0  0  0  0  0  0  0  0999 V2000
    2.8681    1.9050    4.5634 C   0  0  0  0  0  0  0  0  0  0  0  0
    2.6464    0.5019    4.0297 C   0  0  0  0  0  0  0  0  0  0  0  0
    2.4369    0.5407    2.6099 O   0  0  0  0  0  0  0  0  0  0  0  0
    1.1531    0.7570    2.1956 C   0  0  0  0  0  0  0  0  0  0  0  0
    0.2054    0.9269    2.9541 O   0  0  0  0  0  0  0  0  0  0  0  0
    1.0512    0.8026    0.6760 C   0  0  0  0  0  0  0  0  0  0  0  0
   -0.0671   -0.1217    0.2175 C   0  0  0  0  0  0  0  0  0  0  0  0
    0.0821   -1.3141   -0.0346 O   0  0  0  0  0  0  0  0  0  0  0  0
   -1.2473    0.5544    0.1333 O   0  0  0  0  0  0  0  0  0  0  0  0
   -2.3947   -0.2086   -0.2886 C   0  0  0  0  0  0  0  0  0  0  0  0
   -2.4177   -0.2675   -1.8202 C   0  0  0  0  0  0  0  0  0  0  0  0
   -3.6823   -0.9381   -2.3424 C   0  0  0  0  0  0  0  0  0  0  0  0
   -4.9364   -0.2579   -1.8052 C   0  0  0  0  0  0  0  0  0  0  0  0
   -4.9296   -0.1905   -0.2803 C   0  0  0  0  0  0  0  0  0  0  0  0
   -3.6598    0.4848    0.2558 C   0  0  0  0  0  0  0  0  0  0  0  0
   -3.6711    0.4966    1.7871 C   0  0  0  0  0  0  0  0  0  0  0  0
    2.2933    0.4026   -0.0021 N   0  0  0  0  0  0  0  0  0  0  0  0
    2.5260    0.7576   -1.3061 C   0  0  0  0  0  0  0  0  0  0  0  0
    1.8180    1.5640   -1.9073 O   0  0  0  0  0  0  0  0  0  0  0  0
    3.7333    0.0534   -1.9699 C   0  0  0  0  0  0  0  0  0  0  0  0
    3.3145   -1.3228   -2.4907 C   0  0  0  0  0  0  0  0  0  0  0  0
    3.1813   -2.3123   -1.3668 C   0  0  0  0  0  0  0  0  0  0  0  0
    3.3771   -2.1010   -0.1799 O   0  0  0  0  0  0  0  0  0  0  0  0
    2.7888   -3.5250   -1.7998 O   0  0  0  0  0  0  0  0  0  0  0  0
    4.2094    0.8919   -3.0970 N   0  0  0  0  0  0  0  0  0  0  0  0
    3.6895    2.3945    4.0307 H   0  0  0  0  0  0  0  0  0  0  0  0
    3.1030    1.8814    5.6310 H   0  0  0  0  0  0  0  0  0  0  0  0
    1.9788    2.5254    4.4165 H   0  0  0  0  0  0  0  0  0  0  0  0
    1.8149    0.0040    4.5414 H   0  0  0  0  0  0  0  0  0  0  0  0
    3.5415   -0.1042    4.2048 H   0  0  0  0  0  0  0  0  0  0  0  0
    0.8296    1.8336    0.3793 H   0  0  0  0  0  0  0  0  0  0  0  0
   -2.3448   -1.2247    0.1257 H   0  0  0  0  0  0  0  0  0  0  0  0
   -2.3369    0.7483   -2.2288 H   0  0  0  0  0  0  0  0  0  0  0  0
   -1.5361   -0.8043   -2.1905 H   0  0  0  0  0  0  0  0  0  0  0  0
   -3.6840   -1.9942   -2.0473 H   0  0  0  0  0  0  0  0  0  0  0  0
   -3.6885   -0.9123   -3.4377 H   0  0  0  0  0  0  0  0  0  0  0  0
   -5.8247   -0.8013   -2.1459 H   0  0  0  0  0  0  0  0  0  0  0  0
   -5.0061    0.7575   -2.2148 H   0  0  0  0  0  0  0  0  0  0  0  0
   -5.8164    0.3582    0.0595 H   0  0  0  0  0  0  0  0  0  0  0  0
   -5.0109   -1.2071    0.1258 H   0  0  0  0  0  0  0  0  0  0  0  0
   -3.6525    1.5336   -0.0719 H   0  0  0  0  0  0  0  0  0  0  0  0
   -4.5726    0.9911    2.1629 H   0  0  0  0  0  0  0  0  0  0  0  0
   -3.6494   -0.5210    2.1916 H   0  0  0  0  0  0  0  0  0  0  0  0
   -2.8074    1.0382    2.1857 H   0  0  0  0  0  0  0  0  0  0  0  0
    2.7542   -0.4353    0.3593 H   0  0  0  0  0  0  0  0  0  0  0  0
    4.5480   -0.0228   -1.2413 H   0  0  0  0  0  0  0  0  0  0  0  0
    2.3535   -1.2663   -3.0167 H   0  0  0  0  0  0  0  0  0  0  0  0
    4.0770   -1.7142   -3.1751 H   0  0  0  0  0  0  0  0  0  0  0  0
    2.6716   -4.0611   -0.9875 H   0  0  0  0  0  0  0  0  0  0  0  0
    3.3919    1.1270   -3.6710 H   0  0  0  0  0  0  0  0  0  0  0  0
    4.4981    1.7962   -2.7170 H   0  0  0  0  0  0  0  0  0  0  0  0
  1  2  1  0
  2  3  1  0
  3  4  1  0
  4  5  2  0
  4  6  1  0
  6  7  1  0
  7  8  2  0
  7  9  1  0
  9 10  1  0
 10 11  1  0
 11 12  1  0
 12 13  1  0
 13 14  1  0
 14 15  1  0
 15 16  1  0
  6 17  1  0
 17 18  1  0
 18 19  2  0
 18 20  1  0
 20 21  1  0
 21 22  1  0
 22 23  2  0
 22 24  1  0
 20 25  1  0
 15 10  1  0
  1 26  1  0
  1 27  1  0
  1 28  1  0
  2 29  1  0
  2 30  1  0
  6 31  1  0
 10 32  1  0
 11 33  1  0
 11 34  1  0
 12 35  1  0
 12 36  1  0
 13 37  1  0
 13 38  1  0
 14 39  1  0
 14 40  1  0
 15 41  1  0
 16 42  1  0
 16 43  1  0
 16 44  1  0
 17 45  1  0
 20 46  1  0
 21 47  1  0
 21 48  1  0
 24 49  1  0
 25 50  1  0
 25 51  1  0
M  END
