
     RDKit          3D

 61 62  0  0  0  0  0  0  0  0999 V2000
   -4.4887    2.9948   -3.9133 C   0  0  0  0  0  0  0  0  0  0  0  0
   -4.4416    1.4864   -3.7591 C   0  0  0  0  0  0  0  0  0  0  0  0
   -4.1357    1.1354   -2.4009 O   0  0  0  0  0  0  0  0  0  0  0  0
   -2.8119    1.0823   -2.0764 C   0  0  0  0  0  0  0  0  0  0  0  0
   -1.8949    1.3362   -2.8492 O   0  0  0  0  0  0  0  0  0  0  0  0
   -2.5999    0.7010   -0.6184 C   0  0  0  0  0  0  0  0  0  0  0  0
   -1.6169   -0.4618   -0.5510 C   0  0  0  0  0  0  0  0  0  0  0  0
   -1.9629   -1.6313   -0.6778 O   0  0  0  0  0  0  0  0  0  0  0  0
   -0.3723    0.0198   -0.3153 O   0  0  0  0  0  0  0  0  0  0  0  0
    0.6387   -0.8720   -0.2719 C   0  0  0  0  0  0  0  0  0  0  0  0
    0.6164   -2.0617   -0.5381 O   0  0  0  0  0  0  0  0  0  0  0  0
    1.7474   -0.1916    0.1274 O   0  0  0  0  0  0  0  0  0  0  0  0
    2.9430   -0.9696    0.2485 C   0  0  0  0  0  0  0  0  0  0  0  0
    3.6215   -1.1907   -1.1214 C   0  0  0  0  0  0  0  0  0  0  0  0
    5.0294   -0.5808   -0.9163 C   0  0  0  0  0  0  0  0  0  0  0  0
    4.7584    0.6686   -0.0407 C   0  0  0  0  0  0  0  0  0  0  0  0
    4.0427   -0.1949    1.0456 C   0  0  0  0  0  0  0  0  0  0  0  0
    3.5271    0.5436    2.2676 C   0  0  0  0  0  0  0  0  0  0  0  0
    5.1225   -1.2597    1.3950 C   0  0  0  0  0  0  0  0  0  0  0  0
    5.7905   -1.5293    0.0360 C   0  0  0  0  0  0  0  0  0  0  0  0
    6.0341    1.3939    0.4382 C   0  0  0  0  0  0  0  0  0  0  0  0
    3.9021    1.7458   -0.7351 C   0  0  0  0  0  0  0  0  0  0  0  0
   -3.8333    0.3200    0.0816 N   0  0  0  0  0  0  0  0  0  0  0  0
   -3.8545    0.2561    1.4517 C   0  0  0  0  0  0  0  0  0  0  0  0
   -2.9147    0.6578    2.1359 O   0  0  0  0  0  0  0  0  0  0  0  0
   -5.1244   -0.3802    2.0639 C   0  0  0  0  0  0  0  0  0  0  0  0
   -5.0016   -1.9050    2.0571 C   0  0  0  0  0  0  0  0  0  0  0  0
   -5.2371   -2.4664    0.6826 C   0  0  0  0  0  0  0  0  0  0  0  0
   -5.4606   -1.8312   -0.3364 O   0  0  0  0  0  0  0  0  0  0  0  0
   -5.1602   -3.8091    0.6616 O   0  0  0  0  0  0  0  0  0  0  0  0
   -5.2690    0.1024    3.4584 N   0  0  0  0  0  0  0  0  0  0  0  0
   -4.8100    3.2716   -4.9214 H   0  0  0  0  0  0  0  0  0  0  0  0
   -3.5055    3.4384   -3.7281 H   0  0  0  0  0  0  0  0  0  0  0  0
   -5.1795    3.4357   -3.1875 H   0  0  0  0  0  0  0  0  0  0  0  0
   -5.4265    1.0628   -3.9830 H   0  0  0  0  0  0  0  0  0  0  0  0
   -3.7291    1.0328   -4.4575 H   0  0  0  0  0  0  0  0  0  0  0  0
   -2.1897    1.5745   -0.0989 H   0  0  0  0  0  0  0  0  0  0  0  0
    2.7107   -1.9202    0.7461 H   0  0  0  0  0  0  0  0  0  0  0  0
    3.6789   -2.2566   -1.3674 H   0  0  0  0  0  0  0  0  0  0  0  0
    3.0837   -0.6953   -1.9362 H   0  0  0  0  0  0  0  0  0  0  0  0
    5.5584   -0.3951   -1.8540 H   0  0  0  0  0  0  0  0  0  0  0  0
    2.8221    1.3355    1.9959 H   0  0  0  0  0  0  0  0  0  0  0  0
    4.3458    1.0080    2.8268 H   0  0  0  0  0  0  0  0  0  0  0  0
    3.0109   -0.1438    2.9466 H   0  0  0  0  0  0  0  0  0  0  0  0
    4.6887   -2.1724    1.8181 H   0  0  0  0  0  0  0  0  0  0  0  0
    5.8527   -0.8882    2.1220 H   0  0  0  0  0  0  0  0  0  0  0  0
    5.7025   -2.5801   -0.2590 H   0  0  0  0  0  0  0  0  0  0  0  0
    6.8578   -1.2881    0.0724 H   0  0  0  0  0  0  0  0  0  0  0  0
    5.7770    2.2289    1.0999 H   0  0  0  0  0  0  0  0  0  0  0  0
    6.7380    0.7660    0.9878 H   0  0  0  0  0  0  0  0  0  0  0  0
    6.5830    1.8047   -0.4170 H   0  0  0  0  0  0  0  0  0  0  0  0
    4.4777    2.2329   -1.5314 H   0  0  0  0  0  0  0  0  0  0  0  0
    3.6025    2.5226   -0.0227 H   0  0  0  0  0  0  0  0  0  0  0  0
    2.9917    1.3755   -1.2075 H   0  0  0  0  0  0  0  0  0  0  0  0
   -4.5031   -0.2484   -0.4412 H   0  0  0  0  0  0  0  0  0  0  0  0
   -6.0010   -0.0436    1.4988 H   0  0  0  0  0  0  0  0  0  0  0  0
   -5.7572   -2.3457    2.7188 H   0  0  0  0  0  0  0  0  0  0  0  0
   -4.0059   -2.2195    2.3920 H   0  0  0  0  0  0  0  0  0  0  0  0
   -5.2497   -4.0606   -0.2813 H   0  0  0  0  0  0  0  0  0  0  0  0
   -5.3412    1.1221    3.4369 H   0  0  0  0  0  0  0  0  0  0  0  0
   -4.3774   -0.0629    3.9379 H   0  0  0  0  0  0  0  0  0  0  0  0
  1  2  1  0
  2  3  1  0
  3  4  1  0
  4  5  2  0
  4  6  1  0
  6  7  1  0
  7  8  2  0
  7  9  1  0
  9 10  1  0
 10 11  2  0
 10 12  1  0
 12 13  1  0
 13 14  1  0
 14 15  1  0
 15 16  1  0
 16 17  1  0
 17 18  1  0
 17 19  1  0
 19 20  1  0
 16 21  1  0
 16 22  1  0
  6 23  1  0
 23 24  1  0
 24 25  2  0
 24 26  1  0
 26 27  1  0
 27 28  1  0
 28 29  2  0
 28 30  1  0
 26 31  1  0
 17 13  1  0
 20 15  1  0
  1 32  1  0
  1 33  1  0
  1 34  1  0
  2 35  1  0
  2 36  1  0
  6 37  1  0
 13 38  1  0
 14 39  1  0
 14 40  1  0
 15 41  1  0
 18 42  1  0
 18 43  1  0
 18 44  1  0
 19 45  1  0
 19 46  1  0
 20 47  1  0
 20 48  1  0
 21 49  1  0
 21 50  1  0
 21 51  1  0
 22 52  1  0
 22 53  1  0
 22 54  1  0
 23 55  1  0
 26 56  1  0
 27 57  1  0
 27 58  1  0
 30 59  1  0
 31 60  1  0
 31 61  1  0
M  END
