
     RDKit          3D

 54 54  0  0  0  0  0  0  0  0999 V2000
    2.3758   -0.0803    0.0493 C   0  0  0  0  0  0  0  0  0  0  0  0
    0.8825    0.0109    0.0587 C   0  0  0  0  0  0  0  0  0  0  0  0
    0.2168    1.0853   -0.3894 C   0  0  0  0  0  0  0  0  0  0  0  0
   -1.2521    1.2100   -0.3489 C   0  0  0  0  0  0  0  0  0  0  0  0
   -1.8138    2.2201   -0.7415 O   0  0  0  0  0  0  0  0  0  0  0  0
   -1.9693    0.1493    0.1827 N   0  0  0  0  0  0  0  0  0  0  0  0
   -1.3345   -1.3611    0.3761 S   0  0  0  0  0  6  0  0  0  0  0  0
   -1.8788   -1.8833    1.6095 O   0  0  0  0  0  0  0  0  0  0  0  0
   -1.5307   -2.0571   -0.8765 O   0  0  0  0  0  0  0  0  0  0  0  0
    0.2605   -1.1069    0.5808 O   0  0  0  0  0  0  0  0  0  0  0  0
   -0.1265   -3.8401    2.4518 C   0  0  0  0  0  0  0  0  0  0  0  0
   -0.7107   -2.8176    1.6441 O   0  0  0  0  0  0  0  0  0  0  0  0
    0.1399   -1.7943    1.3425 C   0  0  0  0  0  0  0  0  0  0  0  0
    1.2935   -1.6982    1.7488 O   0  0  0  0  0  0  0  0  0  0  0  0
   -0.5663   -0.7583    0.4607 C   0  0  0  0  0  0  0  0  0  0  0  0
   -1.4281    0.1351    1.3615 C   0  0  0  0  0  0  0  0  0  0  0  0
   -2.2953    1.0972    0.5843 C   0  0  0  0  0  0  0  0  0  0  0  0
   -1.9122    2.4365    0.4301 C   0  0  0  0  0  0  0  0  0  0  0  0
   -2.7087    3.3197   -0.3003 C   0  0  0  0  0  0  0  0  0  0  0  0
   -3.8924    2.8731   -0.8842 C   0  0  0  0  0  0  0  0  0  0  0  0
   -4.2809    1.5427   -0.7394 C   0  0  0  0  0  0  0  0  0  0  0  0
   -3.4864    0.6574   -0.0095 C   0  0  0  0  0  0  0  0  0  0  0  0
    0.4522    0.0120   -0.2577 N   0  0  0  0  0  0  0  0  0  0  0  0
    1.0451   -0.5018   -1.3878 C   0  0  0  0  0  0  0  0  0  0  0  0
    0.6501   -1.5257   -1.9435 O   0  0  0  0  0  0  0  0  0  0  0  0
    2.2651    0.3007   -1.9000 C   0  0  0  0  0  0  0  0  0  0  0  0
    3.5267   -0.1239   -1.1464 C   0  0  0  0  0  0  0  0  0  0  0  0
    3.5556    0.4540    0.2406 C   0  0  0  0  0  0  0  0  0  0  0  0
    2.7208    1.1900    0.7446 O   0  0  0  0  0  0  0  0  0  0  0  0
    4.6423    0.0632    0.9320 O   0  0  0  0  0  0  0  0  0  0  0  0
    2.4344    0.0311   -3.3498 N   0  0  0  0  0  0  0  0  0  0  0  0
    2.8416    0.8210   -0.3623 H   0  0  0  0  0  0  0  0  0  0  0  0
    2.6979   -0.9328   -0.5573 H   0  0  0  0  0  0  0  0  0  0  0  0
    2.7523   -0.2188    1.0678 H   0  0  0  0  0  0  0  0  0  0  0  0
    0.7328    1.9494   -0.7943 H   0  0  0  0  0  0  0  0  0  0  0  0
   -2.9808    0.1942    0.1454 H   0  0  0  0  0  0  0  0  0  0  0  0
   -0.8783   -4.6184    2.6094 H   0  0  0  0  0  0  0  0  0  0  0  0
    0.1648   -3.4369    3.4267 H   0  0  0  0  0  0  0  0  0  0  0  0
    0.7335   -4.2873    1.9434 H   0  0  0  0  0  0  0  0  0  0  0  0
   -1.1754   -1.2932   -0.2780 H   0  0  0  0  0  0  0  0  0  0  0  0
   -2.0802   -0.4788    1.9971 H   0  0  0  0  0  0  0  0  0  0  0  0
   -0.7915    0.6964    2.0592 H   0  0  0  0  0  0  0  0  0  0  0  0
   -0.9888    2.8013    0.8744 H   0  0  0  0  0  0  0  0  0  0  0  0
   -2.4039    4.3565   -0.4156 H   0  0  0  0  0  0  0  0  0  0  0  0
   -4.5111    3.5612   -1.4540 H   0  0  0  0  0  0  0  0  0  0  0  0
   -5.2027    1.1936   -1.1974 H   0  0  0  0  0  0  0  0  0  0  0  0
   -3.8038   -0.3782    0.0906 H   0  0  0  0  0  0  0  0  0  0  0  0
    1.0164    0.6530    0.3018 H   0  0  0  0  0  0  0  0  0  0  0  0
    2.0651    1.3716   -1.7793 H   0  0  0  0  0  0  0  0  0  0  0  0
    3.5848   -1.2159   -1.0681 H   0  0  0  0  0  0  0  0  0  0  0  0
    4.4185    0.2453   -1.6671 H   0  0  0  0  0  0  0  0  0  0  0  0
    4.5255    0.4440    1.8273 H   0  0  0  0  0  0  0  0  0  0  0  0
    1.5750    0.3210   -3.8226 H   0  0  0  0  0  0  0  0  0  0  0  0
    2.4339   -0.9877   -3.4702 H   0  0  0  0  0  0  0  0  0  0  0  0
  1  2  1  0
  2  3  2  0
  3  4  1  0
  4  5  2  0
  4  6  1  0
  6  7  1  0
  7  8  2  0
  7  9  2  0
  7 10  1  0
 11 12  1  0
 12 13  1  0
 13 14  2  0
 13 15  1  0
 15 16  1  0
 16 17  1  0
 17 18  2  0
 18 19  1  0
 19 20  2  0
 20 21  1  0
 21 22  2  0
 15 23  1  0
 23 24  1  0
 24 25  2  0
 24 26  1  0
 26 27  1  0
 27 28  1  0
 28 29  2  0
 28 30  1  0
 26 31  1  0
 10  2  1  0
 22 17  1  0
  1 32  1  0
  1 33  1  0
  1 34  1  0
  3 35  1  0
  6 36  1  0
 11 37  1  0
 11 38  1  0
 11 39  1  0
 15 40  1  0
 16 41  1  0
 16 42  1  0
 18 43  1  0
 19 44  1  0
 20 45  1  0
 21 46  1  0
 22 47  1  0
 23 48  1  0
 26 49  1  0
 27 50  1  0
 27 51  1  0
 30 52  1  0
 31 53  1  0
 31 54  1  0
M  END
