
     RDKit          3D

 35 37  0  0  0  0  0  0  0  0999 V2000
    5.7571    0.9062    0.0927 C   0  0  0  0  0  0  0  0  0  0  0  0
    5.0834   -0.3469    0.0627 O   0  0  0  0  0  0  0  0  0  0  0  0
    3.7129   -0.3038    0.0668 C   0  0  0  0  0  0  0  0  0  0  0  0
    2.9236    0.8440    0.0734 C   0  0  0  0  0  0  0  0  0  0  0  0
    1.5266    0.7338    0.0754 C   0  0  0  0  0  0  0  0  0  0  0  0
    0.8966   -0.5225    0.0776 C   0  0  0  0  0  0  0  0  0  0  0  0
    1.6960   -1.6729    0.0642 C   0  0  0  0  0  0  0  0  0  0  0  0
    3.0814   -1.5521    0.0601 C   0  0  0  0  0  0  0  0  0  0  0  0
    3.8276   -2.7002    0.0472 O   0  0  0  0  0  0  0  0  0  0  0  0
   -0.6163   -0.6504    0.0542 C   0  0  0  0  0  0  0  0  0  0  0  0
   -1.1401   -0.5189   -1.3761 C   0  0  0  0  0  0  0  0  0  0  0  0
   -2.6431   -0.7551   -1.3702 C   0  0  0  0  0  0  0  0  0  0  0  0
   -3.2940    0.0059   -0.2522 C   0  0  0  0  0  0  0  0  0  0  0  0
   -2.5369    0.5000    0.8155 C   0  0  0  0  0  0  0  0  0  0  0  0
   -1.1790    0.3537    0.9139 O   0  0  0  0  0  0  0  0  0  0  0  0
   -3.1502    1.2175    1.8425 C   0  0  0  0  0  0  0  0  0  0  0  0
   -4.5293    1.4225    1.8269 C   0  0  0  0  0  0  0  0  0  0  0  0
   -5.2951    0.9132    0.7800 C   0  0  0  0  0  0  0  0  0  0  0  0
   -4.6812    0.2063   -0.2552 C   0  0  0  0  0  0  0  0  0  0  0  0
    5.5180    1.4617    1.0056 H   0  0  0  0  0  0  0  0  0  0  0  0
    5.5317    1.4965   -0.8016 H   0  0  0  0  0  0  0  0  0  0  0  0
    6.8329    0.7065    0.0969 H   0  0  0  0  0  0  0  0  0  0  0  0
    3.3544    1.8393    0.0770 H   0  0  0  0  0  0  0  0  0  0  0  0
    0.9248    1.6416    0.0801 H   0  0  0  0  0  0  0  0  0  0  0  0
    1.2511   -2.6643    0.0575 H   0  0  0  0  0  0  0  0  0  0  0  0
    4.7552   -2.3934    0.0545 H   0  0  0  0  0  0  0  0  0  0  0  0
   -0.8874   -1.6288    0.4757 H   0  0  0  0  0  0  0  0  0  0  0  0
   -0.9372    0.4903   -1.7597 H   0  0  0  0  0  0  0  0  0  0  0  0
   -0.6535   -1.2302   -2.0536 H   0  0  0  0  0  0  0  0  0  0  0  0
   -3.0613   -0.4498   -2.3363 H   0  0  0  0  0  0  0  0  0  0  0  0
   -2.8516   -1.8232   -1.2343 H   0  0  0  0  0  0  0  0  0  0  0  0
   -2.5514    1.6109    2.6595 H   0  0  0  0  0  0  0  0  0  0  0  0
   -5.0047    1.9767    2.6316 H   0  0  0  0  0  0  0  0  0  0  0  0
   -6.3708    1.0689    0.7683 H   0  0  0  0  0  0  0  0  0  0  0  0
   -5.2901   -0.1829   -1.0681 H   0  0  0  0  0  0  0  0  0  0  0  0
  1  2  1  0
  2  3  1  0
  3  4  2  0
  4  5  1  0
  5  6  2  0
  6  7  1  0
  7  8  2  0
  8  9  1  0
  6 10  1  0
 10 11  1  0
 11 12  1  0
 12 13  1  0
 13 14  2  0
 14 15  1  0
 14 16  1  0
 16 17  2  0
 17 18  1  0
 18 19  2  0
  8  3  1  0
 15 10  1  0
 19 13  1  0
  1 20  1  0
  1 21  1  0
  1 22  1  0
  4 23  1  0
  5 24  1  0
  7 25  1  0
  9 26  1  0
 10 27  1  0
 11 28  1  0
 11 29  1  0
 12 30  1  0
 12 31  1  0
 16 32  1  0
 17 33  1  0
 18 34  1  0
 19 35  1  0
M  END
