
     RDKit          3D

 90 94  0  0  0  0  0  0  0  0999 V2000
    3.4390   -0.3444   -4.1236 O   0  0  0  0  0  0  0  0  0  0  0  0
    4.2410   -1.0802   -3.1970 C   0  0  0  0  0  0  0  0  0  0  0  0
    3.4795   -1.3802   -1.8966 C   0  0  0  0  0  0  0  0  0  0  0  0
    3.0443   -0.1296   -1.3380 O   0  0  0  0  0  0  0  0  0  0  0  0
    2.3019   -0.2747   -0.1195 C   0  0  0  0  0  0  0  0  0  0  0  0
    1.1222   -1.0357   -0.3635 O   0  0  0  0  0  0  0  0  0  0  0  0
   -0.0925   -0.4548    0.1284 C   0  0  0  0  0  0  0  0  0  0  0  0
   -0.9140   -1.6267    0.6645 C   0  0  0  0  0  0  0  0  0  0  0  0
   -2.2704   -1.1984    1.2036 C   0  0  0  0  0  0  0  0  0  0  0  0
   -3.1636   -0.4415    0.1837 C   0  0  0  0  0  0  0  0  0  0  0  0
   -2.3155    0.7206   -0.4946 C   0  0  0  0  0  0  0  0  0  0  0  0
   -0.8506    0.3264   -0.9878 C   0  0  0  0  0  0  0  0  0  0  0  0
   -0.0489    1.6039   -1.3654 C   0  0  0  0  0  0  0  0  0  0  0  0
   -0.8832   -0.4912   -2.3062 C   0  0  0  0  0  0  0  0  0  0  0  0
   -2.2793    1.9408    0.4503 C   0  0  0  0  0  0  0  0  0  0  0  0
   -3.6757    2.4615    0.7332 C   0  0  0  0  0  0  0  0  0  0  0  0
   -4.6121    1.4007    1.2379 C   0  0  0  0  0  0  0  0  0  0  0  0
   -4.4181    0.0823    0.9825 C   0  0  0  0  0  0  0  0  0  0  0  0
   -5.3751   -0.9787    1.5523 C   0  0  0  0  0  0  0  0  0  0  0  0
   -6.8391   -0.9645    1.0692 C   0  0  0  0  0  0  0  0  0  0  0  0
   -7.0353   -1.1613   -0.3957 C   0  0  0  0  0  0  0  0  0  0  0  0
   -7.0461   -0.1817   -1.3690 C   0  0  0  0  0  0  0  0  0  0  0  0
   -7.2591   -0.7192   -2.5954 O   0  0  0  0  0  0  0  0  0  0  0  0
   -7.4003   -2.0570   -2.4185 C   0  0  0  0  0  0  0  0  0  0  0  0
   -7.2760   -2.3817   -1.0878 C   0  0  0  0  0  0  0  0  0  0  0  0
   -5.7341    1.9762    2.0701 C   0  0  0  0  0  0  0  0  0  0  0  0
   -3.6552   -1.4027   -0.9223 C   0  0  0  0  0  0  0  0  0  0  0  0
    3.1653   -0.9528    0.9656 C   0  0  0  0  0  0  0  0  0  0  0  0
    3.6471   -2.3094    0.4336 C   0  0  0  0  0  0  0  0  0  0  0  0
    4.3671   -2.1479   -0.9114 C   0  0  0  0  0  0  0  0  0  0  0  0
    4.7003   -3.4431   -1.4221 O   0  0  0  0  0  0  0  0  0  0  0  0
    4.5608   -2.9223    1.3641 O   0  0  0  0  0  0  0  0  0  0  0  0
    4.3609   -0.2060    1.2774 O   0  0  0  0  0  0  0  0  0  0  0  0
    4.1621    0.8597    2.2102 C   0  0  0  0  0  0  0  0  0  0  0  0
    3.5686    1.9983    1.5844 O   0  0  0  0  0  0  0  0  0  0  0  0
    4.3837    2.5657    0.5547 C   0  0  0  0  0  0  0  0  0  0  0  0
    5.7656    2.9818    1.0618 C   0  0  0  0  0  0  0  0  0  0  0  0
    6.4448    1.8130    1.7764 C   0  0  0  0  0  0  0  0  0  0  0  0
    5.5163    1.2391    2.8463 C   0  0  0  0  0  0  0  0  0  0  0  0
    6.1453    0.1117    3.4709 O   0  0  0  0  0  0  0  0  0  0  0  0
    7.6652    2.2507    2.3971 O   0  0  0  0  0  0  0  0  0  0  0  0
    6.6083    3.4448    0.0031 O   0  0  0  0  0  0  0  0  0  0  0  0
    2.5134   -0.6202   -3.9927 H   0  0  0  0  0  0  0  0  0  0  0  0
    4.5607   -2.0028   -3.6900 H   0  0  0  0  0  0  0  0  0  0  0  0
    5.1257   -0.4682   -2.9948 H   0  0  0  0  0  0  0  0  0  0  0  0
    2.5955   -1.9741   -2.1618 H   0  0  0  0  0  0  0  0  0  0  0  0
    2.0496    0.7401    0.1909 H   0  0  0  0  0  0  0  0  0  0  0  0
    0.1247    0.2078    0.9764 H   0  0  0  0  0  0  0  0  0  0  0  0
   -0.3476   -2.1205    1.4648 H   0  0  0  0  0  0  0  0  0  0  0  0
   -1.0305   -2.4000   -0.1016 H   0  0  0  0  0  0  0  0  0  0  0  0
   -2.7802   -2.0979    1.5677 H   0  0  0  0  0  0  0  0  0  0  0  0
   -2.1052   -0.5713    2.0904 H   0  0  0  0  0  0  0  0  0  0  0  0
   -2.8689    1.0530   -1.3864 H   0  0  0  0  0  0  0  0  0  0  0  0
   -0.6368    2.2540   -2.0235 H   0  0  0  0  0  0  0  0  0  0  0  0
    0.8758    1.3686   -1.9022 H   0  0  0  0  0  0  0  0  0  0  0  0
    0.2466    2.1790   -0.4830 H   0  0  0  0  0  0  0  0  0  0  0  0
   -1.0937   -1.5490   -2.1559 H   0  0  0  0  0  0  0  0  0  0  0  0
    0.0882   -0.4696   -2.8153 H   0  0  0  0  0  0  0  0  0  0  0  0
   -1.6201   -0.0821   -3.0063 H   0  0  0  0  0  0  0  0  0  0  0  0
   -1.7336    2.7794    0.0101 H   0  0  0  0  0  0  0  0  0  0  0  0
   -1.7739    1.6901    1.3898 H   0  0  0  0  0  0  0  0  0  0  0  0
   -3.5811    3.2714    1.4672 H   0  0  0  0  0  0  0  0  0  0  0  0
   -4.1060    2.9073   -0.1724 H   0  0  0  0  0  0  0  0  0  0  0  0
   -5.3694   -0.8731    2.6459 H   0  0  0  0  0  0  0  0  0  0  0  0
   -4.9778   -1.9866    1.3941 H   0  0  0  0  0  0  0  0  0  0  0  0
   -7.3386   -0.0352    1.3598 H   0  0  0  0  0  0  0  0  0  0  0  0
   -7.3748   -1.7614    1.6030 H   0  0  0  0  0  0  0  0  0  0  0  0
   -6.9134    0.8910   -1.3437 H   0  0  0  0  0  0  0  0  0  0  0  0
   -7.5788   -2.6289   -3.3176 H   0  0  0  0  0  0  0  0  0  0  0  0
   -7.3448   -3.3752   -0.6669 H   0  0  0  0  0  0  0  0  0  0  0  0
   -6.4879    2.4330    1.4213 H   0  0  0  0  0  0  0  0  0  0  0  0
   -5.3532    2.7480    2.7468 H   0  0  0  0  0  0  0  0  0  0  0  0
   -6.2213    1.2423    2.7121 H   0  0  0  0  0  0  0  0  0  0  0  0
   -2.8521   -1.9557   -1.3997 H   0  0  0  0  0  0  0  0  0  0  0  0
   -4.3195   -2.1834   -0.5497 H   0  0  0  0  0  0  0  0  0  0  0  0
   -4.1867   -0.8557   -1.7064 H   0  0  0  0  0  0  0  0  0  0  0  0
    2.5911   -1.1268    1.8844 H   0  0  0  0  0  0  0  0  0  0  0  0
    2.8063   -3.0048    0.3251 H   0  0  0  0  0  0  0  0  0  0  0  0
    5.3151   -1.6169   -0.7555 H   0  0  0  0  0  0  0  0  0  0  0  0
    5.0714   -3.9360   -0.6637 H   0  0  0  0  0  0  0  0  0  0  0  0
    5.0822   -2.1908    1.7553 H   0  0  0  0  0  0  0  0  0  0  0  0
    3.4961    0.5163    3.0104 H   0  0  0  0  0  0  0  0  0  0  0  0
    3.8594    3.4410    0.1568 H   0  0  0  0  0  0  0  0  0  0  0  0
    4.4724    1.8657   -0.2837 H   0  0  0  0  0  0  0  0  0  0  0  0
    5.6623    3.8151    1.7665 H   0  0  0  0  0  0  0  0  0  0  0  0
    6.7436    1.0383    1.0595 H   0  0  0  0  0  0  0  0  0  0  0  0
    5.3566    1.9914    3.6295 H   0  0  0  0  0  0  0  0  0  0  0  0
    7.0713    0.3923    3.6260 H   0  0  0  0  0  0  0  0  0  0  0  0
    8.1160    2.8038    1.7285 H   0  0  0  0  0  0  0  0  0  0  0  0
    6.6266    2.7654   -0.6967 H   0  0  0  0  0  0  0  0  0  0  0  0
  1  2  1  0
  2  3  1  0
  3  4  1  0
  4  5  1  0
  5  6  1  0
  6  7  1  0
  7  8  1  0
  8  9  1  0
  9 10  1  0
 10 11  1  0
 11 12  1  0
 12 13  1  0
 12 14  1  0
 11 15  1  0
 15 16  1  0
 16 17  1  0
 17 18  2  0
 18 19  1  0
 19 20  1  0
 20 21  1  0
 21 22  2  0
 22 23  1  0
 23 24  1  0
 24 25  2  0
 17 26  1  0
 10 27  1  0
  5 28  1  0
 28 29  1  0
 29 30  1  0
 30 31  1  0
 29 32  1  0
 28 33  1  0
 33 34  1  0
 34 35  1  0
 35 36  1  0
 36 37  1  0
 37 38  1  0
 38 39  1  0
 39 40  1  0
 38 41  1  0
 37 42  1  0
 30  3  1  0
 39 34  1  0
 12  7  1  0
 25 21  1  0
 18 10  1  0
  1 43  1  0
  2 44  1  0
  2 45  1  0
  3 46  1  0
  5 47  1  0
  7 48  1  0
  8 49  1  0
  8 50  1  0
  9 51  1  0
  9 52  1  0
 11 53  1  0
 13 54  1  0
 13 55  1  0
 13 56  1  0
 14 57  1  0
 14 58  1  0
 14 59  1  0
 15 60  1  0
 15 61  1  0
 16 62  1  0
 16 63  1  0
 19 64  1  0
 19 65  1  0
 20 66  1  0
 20 67  1  0
 22 68  1  0
 24 69  1  0
 25 70  1  0
 26 71  1  0
 26 72  1  0
 26 73  1  0
 27 74  1  0
 27 75  1  0
 27 76  1  0
 28 77  1  0
 29 78  1  0
 30 79  1  0
 31 80  1  0
 32 81  1  0
 34 82  1  0
 36 83  1  0
 36 84  1  0
 37 85  1  0
 38 86  1  0
 39 87  1  0
 40 88  1  0
 41 89  1  0
 42 90  1  0
M  END
