
     RDKit          3D

 25 25  0  0  0  0  0  0  0  0999 V2000
   -3.9150    0.0508    2.9356 O   0  0  0  0  0  0  0  0  0  0  0  0
   -3.5188    0.4337    1.7063 C   0  0  0  0  0  0  0  0  0  0  0  0
   -4.2327    1.1380    1.0140 O   0  0  0  0  0  0  0  0  0  0  0  0
   -2.1611   -0.1091    1.3606 C   0  0  0  0  0  0  0  0  0  0  0  0
   -1.7388    0.3303   -0.0409 C   0  0  0  0  0  0  0  0  0  0  0  0
   -0.3673   -0.2029   -0.4211 C   0  0  0  0  0  0  0  0  0  0  0  0
   -0.2319   -1.4561   -1.0573 C   0  0  0  0  0  0  0  0  0  0  0  0
   -1.7210   -2.5658   -1.4824 Br  0  0  0  0  0  0  0  0  0  0  0  0
    1.0245   -1.9624   -1.4068 C   0  0  0  0  0  0  0  0  0  0  0  0
    2.1792   -1.2373   -1.1223 C   0  0  0  0  0  0  0  0  0  0  0  0
    2.0801    0.0009   -0.4825 C   0  0  0  0  0  0  0  0  0  0  0  0
    0.8181    0.5173   -0.1234 C   0  0  0  0  0  0  0  0  0  0  0  0
    0.7260    2.2069    0.7780 Br  0  0  0  0  0  0  0  0  0  0  0  0
    3.3108    0.7395   -0.1536 C   0  0  0  0  0  0  0  0  0  0  0  0
    3.8884    0.5616    0.9079 O   0  0  0  0  0  0  0  0  0  0  0  0
    3.7493    1.6163   -1.1035 N   0  0  0  0  0  0  0  0  0  0  0  0
    3.8394   -2.0023   -1.6407 Br  0  0  0  0  0  0  0  0  0  0  0  0
   -4.7977    0.4630    3.0461 H   0  0  0  0  0  0  0  0  0  0  0  0
   -2.2039   -1.2019    1.4230 H   0  0  0  0  0  0  0  0  0  0  0  0
   -1.4478    0.2527    2.1089 H   0  0  0  0  0  0  0  0  0  0  0  0
   -1.7646    1.4228   -0.1253 H   0  0  0  0  0  0  0  0  0  0  0  0
   -2.4877    0.0184   -0.7786 H   0  0  0  0  0  0  0  0  0  0  0  0
    1.1020   -2.9309   -1.8980 H   0  0  0  0  0  0  0  0  0  0  0  0
    4.5920    2.1404   -0.9038 H   0  0  0  0  0  0  0  0  0  0  0  0
    3.2784    1.7761   -1.9828 H   0  0  0  0  0  0  0  0  0  0  0  0
  1  2  1  0
  2  3  2  0
  2  4  1  0
  4  5  1  0
  5  6  1  0
  6  7  2  0
  7  8  1  0
  7  9  1  0
  9 10  2  0
 10 11  1  0
 11 12  2  0
 12 13  1  0
 11 14  1  0
 14 15  2  0
 14 16  1  0
 10 17  1  0
 12  6  1  0
  1 18  1  0
  4 19  1  0
  4 20  1  0
  5 21  1  0
  5 22  1  0
  9 23  1  0
 16 24  1  0
 16 25  1  0
M  END
