
     RDKit          3D

 42 43  0  0  0  0  0  0  0  0999 V2000
    4.1844   -4.0037   -3.3865 N   0  0  0  0  0  0  0  0  0  0  0  0
    3.8177   -3.1056   -2.7493 C   0  0  0  0  0  0  0  0  0  0  0  0
    3.3598   -1.9971   -1.9638 C   0  0  0  0  0  0  0  0  0  0  0  0
    2.9724   -0.8064   -2.5882 C   0  0  0  0  0  0  0  0  0  0  0  0
    2.5282    0.2733   -1.8195 C   0  0  0  0  0  0  0  0  0  0  0  0
    2.4480    0.1677   -0.4290 C   0  0  0  0  0  0  0  0  0  0  0  0
    2.8608   -1.0148    0.1921 C   0  0  0  0  0  0  0  0  0  0  0  0
    3.3064   -2.0985   -0.5698 C   0  0  0  0  0  0  0  0  0  0  0  0
    2.0521    1.2637    0.3329 N   0  0  0  0  0  0  0  0  0  0  0  0
    0.8648    1.3814    0.8293 C   0  0  0  0  0  0  0  0  0  0  0  0
   -0.2701    0.6263    0.7358 N   0  0  0  0  0  0  0  0  0  0  0  0
   -0.5420   -0.3544   -0.2927 C   0  0  0  0  0  0  0  0  0  0  0  0
   -1.9868   -0.7903   -0.1930 C   0  0  0  0  0  0  0  0  0  0  0  0
   -2.3850   -1.6946    0.8012 C   0  0  0  0  0  0  0  0  0  0  0  0
   -3.7210   -2.0766    0.9138 C   0  0  0  0  0  0  0  0  0  0  0  0
   -4.6729   -1.5576    0.0363 C   0  0  0  0  0  0  0  0  0  0  0  0
   -4.2966   -0.6566   -0.9663 C   0  0  0  0  0  0  0  0  0  0  0  0
   -2.9543   -0.2656   -1.0641 C   0  0  0  0  0  0  0  0  0  0  0  0
   -5.3275   -0.0693   -1.8845 C   0  0  0  0  0  0  0  0  0  0  0  0
    0.5643    2.4414    1.6503 N   0  0  0  0  0  0  0  0  0  0  0  0
    1.6338    3.3511    2.0825 C   0  0  0  0  0  0  0  0  0  0  0  0
    2.5085    2.7062    3.1459 C   0  0  0  0  0  0  0  0  0  0  0  0
    2.1973    1.7879    3.8911 O   0  0  0  0  0  0  0  0  0  0  0  0
    3.7088    3.3100    3.2780 O   0  0  0  0  0  0  0  0  0  0  0  0
    3.0223   -0.7058   -3.6705 H   0  0  0  0  0  0  0  0  0  0  0  0
    2.2448    1.2063   -2.3000 H   0  0  0  0  0  0  0  0  0  0  0  0
    2.8304   -1.0848    1.2770 H   0  0  0  0  0  0  0  0  0  0  0  0
    3.6158   -3.0124   -0.0667 H   0  0  0  0  0  0  0  0  0  0  0  0
   -1.0947    1.1857    0.9247 H   0  0  0  0  0  0  0  0  0  0  0  0
    0.0896   -1.2400   -0.1750 H   0  0  0  0  0  0  0  0  0  0  0  0
   -0.3577    0.0668   -1.2872 H   0  0  0  0  0  0  0  0  0  0  0  0
   -1.6525   -2.0972    1.4982 H   0  0  0  0  0  0  0  0  0  0  0  0
   -4.0222   -2.7756    1.6898 H   0  0  0  0  0  0  0  0  0  0  0  0
   -5.7126   -1.8597    0.1414 H   0  0  0  0  0  0  0  0  0  0  0  0
   -2.6603    0.4538   -1.8266 H   0  0  0  0  0  0  0  0  0  0  0  0
   -6.1507   -0.7725   -2.0489 H   0  0  0  0  0  0  0  0  0  0  0  0
   -4.8938    0.1570   -2.8642 H   0  0  0  0  0  0  0  0  0  0  0  0
   -5.7302    0.8525   -1.4537 H   0  0  0  0  0  0  0  0  0  0  0  0
    0.0366    2.1174    2.4569 H   0  0  0  0  0  0  0  0  0  0  0  0
    1.1783    4.2437    2.5229 H   0  0  0  0  0  0  0  0  0  0  0  0
    2.2455    3.6639    1.2297 H   0  0  0  0  0  0  0  0  0  0  0  0
    4.1606    2.7828    3.9698 H   0  0  0  0  0  0  0  0  0  0  0  0
  1  2  3  0
  2  3  1  0
  3  4  2  0
  4  5  1  0
  5  6  2  0
  6  7  1  0
  7  8  2  0
  6  9  1  0
  9 10  2  3
 10 11  1  0
 11 12  1  0
 12 13  1  0
 13 14  2  0
 14 15  1  0
 15 16  2  0
 16 17  1  0
 17 18  2  0
 17 19  1  0
 10 20  1  0
 20 21  1  0
 21 22  1  0
 22 23  2  0
 22 24  1  0
  8  3  1  0
 18 13  1  0
  4 25  1  0
  5 26  1  0
  7 27  1  0
  8 28  1  0
 11 29  1  0
 12 30  1  0
 12 31  1  0
 14 32  1  0
 15 33  1  0
 16 34  1  0
 18 35  1  0
 19 36  1  0
 19 37  1  0
 19 38  1  0
 20 39  1  0
 21 40  1  0
 21 41  1  0
 24 42  1  0
M  END
