
     RDKit          3D

 47 46  0  0  0  0  0  0  0  0999 V2000
   -2.1769    0.3364   -0.2333 C   0  0  0  0  0  0  0  0  0  0  0  0
   -1.4261   -0.9618   -0.5071 C   0  0  0  0  0  0  0  0  0  0  0  0
   -0.3740   -1.2479    0.5651 C   0  0  0  0  0  0  0  0  0  0  0  0
    0.5832   -0.0741    0.8088 C   0  0  0  0  0  0  0  0  0  0  0  0
   -0.1842    1.2367    1.0274 C   0  0  0  0  0  0  0  0  0  0  0  0
   -1.2213    1.5115   -0.0608 C   0  0  0  0  0  0  0  0  0  0  0  0
    1.4916    0.1047   -0.3356 N   0  0  0  0  0  0  0  0  0  0  0  0
    3.0684   -0.4718   -0.1478 S   0  0  0  0  0  6  0  0  0  0  0  0
    3.6069   -0.2113   -1.4740 O   0  0  0  0  0  0  0  0  0  0  0  0
    2.8400   -1.8752    0.1633 O   0  0  0  0  0  0  0  0  0  0  0  0
    3.5925    0.3440    0.9357 O   0  0  0  0  0  1  0  0  0  0  0  0
   -2.1786    0.3219   -0.2368 C   0  0  0  0  0  0  0  0  0  0  0  0
   -1.4211   -0.9750   -0.4982 C   0  0  0  0  0  0  0  0  0  0  0  0
   -0.3677   -1.2456    0.5767 C   0  0  0  0  0  0  0  0  0  0  0  0
    0.5834   -0.0647    0.8095 C   0  0  0  0  0  0  0  0  0  0  0  0
   -0.1907    1.2441    1.0157 C   0  0  0  0  0  0  0  0  0  0  0  0
   -1.2290    1.5035   -0.0752 C   0  0  0  0  0  0  0  0  0  0  0  0
    1.4912    0.1080   -0.3364 N   0  0  0  0  0  0  0  0  0  0  0  0
    3.0708   -0.4587   -0.1429 S   0  0  0  0  0  6  0  0  0  0  0  0
    3.6082   -0.2079   -1.4715 O   0  0  0  0  0  0  0  0  0  0  0  0
    2.8495   -1.8603    0.1813 O   0  0  0  0  0  0  0  0  0  0  0  0
    3.5906    0.3699    0.9329 O   0  0  0  0  0  1  0  0  0  0  0  0
    0.0000    0.0000    0.0000 Ca  0  0  0  0  0 15  0  0  0  0  0  0
   -2.7834    0.2229    0.6737 H   0  0  0  0  0  0  0  0  0  0  0  0
   -2.8703    0.5421   -1.0566 H   0  0  0  0  0  0  0  0  0  0  0  0
   -0.9494   -0.9076   -1.4928 H   0  0  0  0  0  0  0  0  0  0  0  0
   -2.1382   -1.7940   -0.5497 H   0  0  0  0  0  0  0  0  0  0  0  0
   -0.8925   -1.4746    1.5058 H   0  0  0  0  0  0  0  0  0  0  0  0
    0.1810   -2.1517    0.2898 H   0  0  0  0  0  0  0  0  0  0  0  0
    1.1602   -0.2709    1.7202 H   0  0  0  0  0  0  0  0  0  0  0  0
    0.5138    2.0809    1.0842 H   0  0  0  0  0  0  0  0  0  0  0  0
   -0.6984    1.1870    1.9959 H   0  0  0  0  0  0  0  0  0  0  0  0
   -0.7166    1.7174   -1.0125 H   0  0  0  0  0  0  0  0  0  0  0  0
   -1.7905    2.4122    0.1961 H   0  0  0  0  0  0  0  0  0  0  0  0
    1.1842   -0.2548   -1.2316 H   0  0  0  0  0  0  0  0  0  0  0  0
   -2.7846    0.2138    0.6712 H   0  0  0  0  0  0  0  0  0  0  0  0
   -2.8728    0.5164   -1.0620 H   0  0  0  0  0  0  0  0  0  0  0  0
   -0.9444   -0.9276   -1.4844 H   0  0  0  0  0  0  0  0  0  0  0  0
   -2.1289   -1.8112   -0.5331 H   0  0  0  0  0  0  0  0  0  0  0  0
   -0.8852   -1.4661    1.5194 H   0  0  0  0  0  0  0  0  0  0  0  0
    0.1919   -2.1491    0.3100 H   0  0  0  0  0  0  0  0  0  0  0  0
    1.1613   -0.2500    1.7228 H   0  0  0  0  0  0  0  0  0  0  0  0
    0.5030    2.0924    1.0647 H   0  0  0  0  0  0  0  0  0  0  0  0
   -0.7048    1.2009    1.9846 H   0  0  0  0  0  0  0  0  0  0  0  0
   -0.7251    1.7030   -1.0286 H   0  0  0  0  0  0  0  0  0  0  0  0
   -1.8028    2.4036    0.1732 H   0  0  0  0  0  0  0  0  0  0  0  0
    1.1857   -0.2615   -1.2290 H   0  0  0  0  0  0  0  0  0  0  0  0
  1  2  1  0
  2  3  1  0
  3  4  1  0
  4  5  1  0
  5  6  1  0
  4  7  1  0
  7  8  1  0
  8  9  2  0
  8 10  2  0
  8 11  1  0
 12 13  1  0
 13 14  1  0
 14 15  1  0
 15 16  1  0
 16 17  1  0
 15 18  1  0
 18 19  1  0
 19 20  2  0
 19 21  2  0
 19 22  1  0
  6  1  1  0
 17 12  1  0
  1 24  1  0
  1 25  1  0
  2 26  1  0
  2 27  1  0
  3 28  1  0
  3 29  1  0
  4 30  1  0
  5 31  1  0
  5 32  1  0
  6 33  1  0
  6 34  1  0
  7 35  1  0
 12 36  1  0
 12 37  1  0
 13 38  1  0
 13 39  1  0
 14 40  1  0
 14 41  1  0
 15 42  1  0
 16 43  1  0
 16 44  1  0
 17 45  1  0
 17 46  1  0
 18 47  1  0
M  CHG  3  11  -1  22  -1  23   2
M  END
