
     RDKit          3D

 33 34  0  0  0  0  0  0  0  0999 V2000
   -2.1995    0.2586    0.1038 C   0  0  0  0  0  0  0  0  0  0  0  0
   -1.8834   -1.0943    0.0060 C   0  0  0  0  0  0  0  0  0  0  0  0
   -0.5527   -1.5172   -0.0735 C   0  0  0  0  0  0  0  0  0  0  0  0
    0.4515   -0.5393   -0.0519 C   0  0  0  0  0  0  0  0  0  0  0  0
    0.1702    0.8442    0.0464 C   0  0  0  0  0  0  0  0  0  0  0  0
   -1.1906    1.2289    0.1247 C   0  0  0  0  0  0  0  0  0  0  0  0
    1.4346    1.6280    0.0454 C   0  0  0  0  0  0  0  0  0  0  0  0
    2.5885    0.9465   -0.0434 N   0  0  0  0  0  0  0  0  0  0  0  0
    2.0659   -0.5212   -0.1150 S   0  0  0  0  0  6  0  0  0  0  0  0
    2.6164   -1.2836   -1.4315 O   0  0  0  0  0  0  0  0  0  0  0  0
    2.7149   -1.4396    1.0481 O   0  0  0  0  0  0  0  0  0  0  0  0
    1.4332    3.0316    0.1338 O   0  0  0  0  0  1  0  0  0  0  0  0
   -2.1995    0.2586    0.1038 C   0  0  0  0  0  0  0  0  0  0  0  0
   -1.8834   -1.0943    0.0060 C   0  0  0  0  0  0  0  0  0  0  0  0
   -0.5527   -1.5172   -0.0736 C   0  0  0  0  0  0  0  0  0  0  0  0
    0.4515   -0.5393   -0.0519 C   0  0  0  0  0  0  0  0  0  0  0  0
    0.1702    0.8442    0.0464 C   0  0  0  0  0  0  0  0  0  0  0  0
   -1.1906    1.2289    0.1248 C   0  0  0  0  0  0  0  0  0  0  0  0
    1.4346    1.6281    0.0454 C   0  0  0  0  0  0  0  0  0  0  0  0
    2.5885    0.9465   -0.0434 N   0  0  0  0  0  0  0  0  0  0  0  0
    2.0659   -0.5212   -0.1150 S   0  0  0  0  0  6  0  0  0  0  0  0
    2.6164   -1.2836   -1.4315 O   0  0  0  0  0  0  0  0  0  0  0  0
    2.7150   -1.4396    1.0481 O   0  0  0  0  0  0  0  0  0  0  0  0
    1.4332    3.0316    0.1338 O   0  0  0  0  0  1  0  0  0  0  0  0
    0.0000    0.0000    0.0000 Ca  0  0  0  0  0 15  0  0  0  0  0  0
   -3.2381    0.5729    0.1649 H   0  0  0  0  0  0  0  0  0  0  0  0
   -2.6811   -1.8328   -0.0087 H   0  0  0  0  0  0  0  0  0  0  0  0
   -0.2978   -2.5693   -0.1499 H   0  0  0  0  0  0  0  0  0  0  0  0
   -1.4320    2.2864    0.2009 H   0  0  0  0  0  0  0  0  0  0  0  0
   -3.2381    0.5729    0.1649 H   0  0  0  0  0  0  0  0  0  0  0  0
   -2.6811   -1.8328   -0.0087 H   0  0  0  0  0  0  0  0  0  0  0  0
   -0.2978   -2.5693   -0.1499 H   0  0  0  0  0  0  0  0  0  0  0  0
   -1.4320    2.2864    0.2009 H   0  0  0  0  0  0  0  0  0  0  0  0
  1  2  2  0
  2  3  1  0
  3  4  2  0
  4  5  1  0
  5  6  2  0
  5  7  1  0
  7  8  2  0
  8  9  1  0
  9 10  2  0
  9 11  2  0
  7 12  1  0
 13 14  2  0
 14 15  1  0
 15 16  2  0
 16 17  1  0
 17 18  2  0
 17 19  1  0
 19 20  2  0
 20 21  1  0
 21 22  2  0
 21 23  2  0
 19 24  1  0
  6  1  1  0
 18 13  1  0
  9  4  1  0
 21 16  1  0
  1 26  1  0
  2 27  1  0
  3 28  1  0
  6 29  1  0
 13 30  1  0
 14 31  1  0
 15 32  1  0
 18 33  1  0
M  CHG  3  12  -1  24  -1  25   2
M  END
