
     RDKit          3D

 24 24  0  0  0  0  0  0  0  0999 V2000
    3.0405    1.0111   -1.7355 O   0  0  0  0  0  0  0  0  0  0  0  0
    2.5126   -0.4671   -1.4064 S   0  0  0  0  0  6  0  0  0  0  0  0
    1.8493   -0.9909   -2.5726 O   0  0  0  0  0  0  0  0  0  0  0  0
    3.6117   -1.1496   -0.7696 O   0  0  0  0  0  0  0  0  0  0  0  0
    1.3724   -0.1913   -0.2186 N   0  0  0  0  0  0  0  0  0  0  0  0
    0.1194    0.4926   -0.6090 C   0  0  0  0  0  0  0  0  0  0  0  0
   -0.9798   -0.5247   -0.9372 C   0  0  0  0  0  0  0  0  0  0  0  0
   -1.5178   -1.2567    0.2926 C   0  0  0  0  0  0  0  0  0  0  0  0
   -1.9478   -0.2869    1.3875 C   0  0  0  0  0  0  0  0  0  0  0  0
   -0.8252    0.6757    1.7578 C   0  0  0  0  0  0  0  0  0  0  0  0
   -0.3014    1.4257    0.5337 C   0  0  0  0  0  0  0  0  0  0  0  0
    3.8916    1.1222   -1.2648 H   0  0  0  0  0  0  0  0  0  0  0  0
    1.2584   -1.0157    0.3690 H   0  0  0  0  0  0  0  0  0  0  0  0
    0.3099    1.1170   -1.4904 H   0  0  0  0  0  0  0  0  0  0  0  0
   -1.8134    0.0071   -1.4142 H   0  0  0  0  0  0  0  0  0  0  0  0
   -0.6251   -1.2629   -1.6647 H   0  0  0  0  0  0  0  0  0  0  0  0
   -2.3711   -1.8800    0.0010 H   0  0  0  0  0  0  0  0  0  0  0  0
   -0.7537   -1.9376    0.6856 H   0  0  0  0  0  0  0  0  0  0  0  0
   -2.8205    0.2839    1.0471 H   0  0  0  0  0  0  0  0  0  0  0  0
   -2.2606   -0.8480    2.2752 H   0  0  0  0  0  0  0  0  0  0  0  0
   -1.1898    1.3960    2.4991 H   0  0  0  0  0  0  0  0  0  0  0  0
   -0.0071    0.1209    2.2327 H   0  0  0  0  0  0  0  0  0  0  0  0
   -1.0917    2.0947    0.1692 H   0  0  0  0  0  0  0  0  0  0  0  0
    0.5391    2.0641    0.8324 H   0  0  0  0  0  0  0  0  0  0  0  0
  1  2  1  0
  2  3  2  0
  2  4  2  0
  2  5  1  0
  5  6  1  0
  6  7  1  0
  7  8  1  0
  8  9  1  0
  9 10  1  0
 10 11  1  0
 11  6  1  0
  1 12  1  0
  5 13  1  0
  6 14  1  0
  7 15  1  0
  7 16  1  0
  8 17  1  0
  8 18  1  0
  9 19  1  0
  9 20  1  0
 10 21  1  0
 10 22  1  0
 11 23  1  0
 11 24  1  0
M  END
