
     RDKit          3D

128134  0  0  0  0  0  0  0  0999 V2000
   10.0727    1.8317   -3.3004 C   0  0  0  0  0  0  0  0  0  0  0  0
    8.7025    2.1231   -2.7703 C   0  0  0  0  0  0  0  0  0  0  0  0
    7.6832    1.5571   -3.1363 O   0  0  0  0  0  0  0  0  0  0  0  0
    8.7653    3.0818   -1.8112 O   0  0  0  0  0  0  0  0  0  0  0  0
    7.5160    3.4517   -1.2133 C   0  0  0  0  0  0  0  0  0  0  0  0
    7.0027    2.4249   -0.2037 C   0  0  0  0  0  0  0  0  0  0  0  0
    5.6924    2.8252    0.2681 O   0  0  0  0  0  0  0  0  0  0  0  0
    5.5421    2.2468    1.5792 C   0  0  0  0  0  0  0  0  0  0  0  0
    6.9078    2.5238    2.2030 C   0  0  0  0  0  0  0  0  0  0  0  0
    7.8649    2.1989    1.0539 C   0  0  0  0  0  0  0  0  0  0  0  0
    9.0390    3.0044    1.1377 O   0  0  0  0  0  0  0  0  0  0  0  0
    7.0541    3.9192    2.5457 O   0  0  0  0  0  0  0  0  0  0  0  0
    5.3161    0.8474    1.5008 O   0  0  0  0  0  0  0  0  0  0  0  0
    3.9450    0.4553    1.3401 C   0  0  0  0  0  0  0  0  0  0  0  0
    3.3438    0.9641    0.0283 C   0  0  0  0  0  0  0  0  0  0  0  0
    1.9250    0.4526   -0.2252 C   0  0  0  0  0  0  0  0  0  0  0  0
    1.7816   -1.0982   -0.1966 C   0  0  0  0  0  0  0  0  0  0  0  0
    2.3964   -1.5816    1.1699 C   0  0  0  0  0  0  0  0  0  0  0  0
    3.8661   -1.1021    1.4804 C   0  0  0  0  0  0  0  0  0  0  0  0
    4.2270   -1.4419    2.9541 C   0  0  0  0  0  0  0  0  0  0  0  0
    4.9413   -1.7977    0.6125 C   0  0  0  0  0  0  0  0  0  0  0  0
    2.1498   -3.0842    1.3911 C   0  0  0  0  0  0  0  0  0  0  0  0
    0.6540   -3.3890    1.4351 C   0  0  0  0  0  0  0  0  0  0  0  0
   -0.1222   -2.9826    0.1524 C   0  0  0  0  0  0  0  0  0  0  0  0
    0.2314   -1.4840   -0.1852 C   0  0  0  0  0  0  0  0  0  0  0  0
   -0.5684   -1.0324   -1.4272 C   0  0  0  0  0  0  0  0  0  0  0  0
   -2.0828   -1.0047   -1.1275 C   0  0  0  0  0  0  0  0  0  0  0  0
   -2.3366   -0.0277   -0.1080 O   0  0  0  0  0  0  0  0  0  0  0  0
   -2.3359    1.3254   -0.5960 C   0  0  0  0  0  0  0  0  0  0  0  0
   -3.6494    1.7242   -0.9741 O   0  0  0  0  0  0  0  0  0  0  0  0
   -3.7147    3.0417   -1.5465 C   0  0  0  0  0  0  0  0  0  0  0  0
   -3.9736    2.8865   -3.0424 C   0  0  0  0  0  0  0  0  0  0  0  0
   -2.4761    3.9196   -1.2713 C   0  0  0  0  0  0  0  0  0  0  0  0
   -2.0151    3.7376    0.1769 C   0  0  0  0  0  0  0  0  0  0  0  0
   -1.8238    2.2500    0.5355 C   0  0  0  0  0  0  0  0  0  0  0  0
   -2.4624    1.9966    1.8018 O   0  0  0  0  0  0  0  0  0  0  0  0
   -2.9961    4.3574    1.0353 O   0  0  0  0  0  0  0  0  0  0  0  0
   -2.7658    5.2948   -1.5138 O   0  0  0  0  0  0  0  0  0  0  0  0
   -2.5722   -2.4349   -0.7423 C   0  0  0  0  0  0  0  0  0  0  0  0
   -1.7031   -3.1523    0.3673 C   0  0  0  0  0  0  0  0  0  0  0  0
   -2.0660   -4.6762    0.4444 C   0  0  0  0  0  0  0  0  0  0  0  0
   -2.2833   -2.5088    1.6495 C   0  0  0  0  0  0  0  0  0  0  0  0
   -3.7641   -2.2158    1.3528 C   0  0  0  0  0  0  0  0  0  0  0  0
   -4.0010   -2.5424   -0.1342 C   0  0  0  0  0  0  0  0  0  0  0  0
   -5.2211   -1.8631   -0.8018 C   0  0  0  0  0  0  0  0  0  0  0  0
   -5.1965   -2.0441   -2.3317 C   0  0  0  0  0  0  0  0  0  0  0  0
   -6.5408   -2.4190   -0.2396 C   0  0  0  0  0  0  0  0  0  0  0  0
   -7.5252   -1.2945   -0.4844 C   0  0  0  0  0  0  0  0  0  0  0  0
   -6.6633   -0.0410   -0.3946 C   0  0  0  0  0  0  0  0  0  0  0  0
   -5.2833   -0.4708   -0.4888 O   0  0  0  0  0  0  0  0  0  0  0  0
   -6.8418    0.8237    0.8840 C   0  0  0  0  0  0  0  0  0  0  0  0
   -5.7672    1.7777    0.9545 O   0  0  0  0  0  0  0  0  0  0  0  0
   -8.1510    1.6211    0.8150 C   0  0  0  0  0  0  0  0  0  0  0  0
   -6.7979    0.0346    2.1954 C   0  0  0  0  0  0  0  0  0  0  0  0
    0.3032   -3.9529   -0.9893 C   0  0  0  0  0  0  0  0  0  0  0  0
    2.5047   -1.6494   -1.4474 C   0  0  0  0  0  0  0  0  0  0  0  0
    9.9875    1.2322   -4.2106 H   0  0  0  0  0  0  0  0  0  0  0  0
   10.5821    2.7673   -3.5560 H   0  0  0  0  0  0  0  0  0  0  0  0
   10.6467    1.2722   -2.5554 H   0  0  0  0  0  0  0  0  0  0  0  0
    7.6621    4.4231   -0.7175 H   0  0  0  0  0  0  0  0  0  0  0  0
    6.7671    3.6367   -1.9940 H   0  0  0  0  0  0  0  0  0  0  0  0
    6.8657    1.4579   -0.7000 H   0  0  0  0  0  0  0  0  0  0  0  0
    4.7371    2.7637    2.1152 H   0  0  0  0  0  0  0  0  0  0  0  0
    7.1192    1.9272    3.0936 H   0  0  0  0  0  0  0  0  0  0  0  0
    8.1754    1.1484    1.0883 H   0  0  0  0  0  0  0  0  0  0  0  0
    8.8507    3.6949    1.8016 H   0  0  0  0  0  0  0  0  0  0  0  0
    6.6021    4.4262    1.8443 H   0  0  0  0  0  0  0  0  0  0  0  0
    3.3734    0.8967    2.1706 H   0  0  0  0  0  0  0  0  0  0  0  0
    3.2951    2.0596    0.0525 H   0  0  0  0  0  0  0  0  0  0  0  0
    4.0135    0.7341   -0.8080 H   0  0  0  0  0  0  0  0  0  0  0  0
    1.5967    0.8567   -1.1899 H   0  0  0  0  0  0  0  0  0  0  0  0
    1.2706    0.8923    0.5351 H   0  0  0  0  0  0  0  0  0  0  0  0
    1.7950   -1.0788    1.9454 H   0  0  0  0  0  0  0  0  0  0  0  0
    5.1797   -0.9909    3.2513 H   0  0  0  0  0  0  0  0  0  0  0  0
    4.3352   -2.5210    3.1121 H   0  0  0  0  0  0  0  0  0  0  0  0
    3.4596   -1.0732    3.6441 H   0  0  0  0  0  0  0  0  0  0  0  0
    4.8102   -2.8876    0.6048 H   0  0  0  0  0  0  0  0  0  0  0  0
    4.9418   -1.4482   -0.4223 H   0  0  0  0  0  0  0  0  0  0  0  0
    5.9490   -1.6046    0.9990 H   0  0  0  0  0  0  0  0  0  0  0  0
    2.6452   -3.6916    0.6282 H   0  0  0  0  0  0  0  0  0  0  0  0
    2.5634   -3.4024    2.3521 H   0  0  0  0  0  0  0  0  0  0  0  0
    0.2348   -2.8701    2.3047 H   0  0  0  0  0  0  0  0  0  0  0  0
    0.5389   -4.4593    1.6386 H   0  0  0  0  0  0  0  0  0  0  0  0
   -0.1581   -0.8943    0.6573 H   0  0  0  0  0  0  0  0  0  0  0  0
   -0.3837   -1.6837   -2.2851 H   0  0  0  0  0  0  0  0  0  0  0  0
   -0.2440   -0.0399   -1.7330 H   0  0  0  0  0  0  0  0  0  0  0  0
   -2.6074   -0.6941   -2.0371 H   0  0  0  0  0  0  0  0  0  0  0  0
   -1.6778    1.4211   -1.4676 H   0  0  0  0  0  0  0  0  0  0  0  0
   -4.6022    3.5223   -1.1157 H   0  0  0  0  0  0  0  0  0  0  0  0
   -3.1252    2.4017   -3.5399 H   0  0  0  0  0  0  0  0  0  0  0  0
   -4.1615    3.8547   -3.5234 H   0  0  0  0  0  0  0  0  0  0  0  0
   -4.8448    2.2400   -3.2079 H   0  0  0  0  0  0  0  0  0  0  0  0
   -1.6558    3.6408   -1.9429 H   0  0  0  0  0  0  0  0  0  0  0  0
   -1.0845    4.2874    0.3446 H   0  0  0  0  0  0  0  0  0  0  0  0
   -0.7623    2.0447    0.6879 H   0  0  0  0  0  0  0  0  0  0  0  0
   -3.0344    1.2119    1.6623 H   0  0  0  0  0  0  0  0  0  0  0  0
   -2.9071    3.8818    1.8896 H   0  0  0  0  0  0  0  0  0  0  0  0
   -3.2426    5.5968   -0.7111 H   0  0  0  0  0  0  0  0  0  0  0  0
   -2.5337   -3.0409   -1.6595 H   0  0  0  0  0  0  0  0  0  0  0  0
   -1.3655   -5.2309    1.0748 H   0  0  0  0  0  0  0  0  0  0  0  0
   -3.0491   -4.8670    0.8891 H   0  0  0  0  0  0  0  0  0  0  0  0
   -2.0722   -5.1401   -0.5492 H   0  0  0  0  0  0  0  0  0  0  0  0
   -1.7784   -1.5718    1.9077 H   0  0  0  0  0  0  0  0  0  0  0  0
   -2.1855   -3.1617    2.5235 H   0  0  0  0  0  0  0  0  0  0  0  0
   -3.9650   -1.1644    1.5789 H   0  0  0  0  0  0  0  0  0  0  0  0
   -4.4130   -2.8205    1.9938 H   0  0  0  0  0  0  0  0  0  0  0  0
   -4.2625   -3.6072   -0.1924 H   0  0  0  0  0  0  0  0  0  0  0  0
   -6.1047   -1.6608   -2.8069 H   0  0  0  0  0  0  0  0  0  0  0  0
   -4.3820   -1.4820   -2.7959 H   0  0  0  0  0  0  0  0  0  0  0  0
   -5.0905   -3.0998   -2.6057 H   0  0  0  0  0  0  0  0  0  0  0  0
   -6.4728   -2.5922    0.8401 H   0  0  0  0  0  0  0  0  0  0  0  0
   -6.8505   -3.3596   -0.7092 H   0  0  0  0  0  0  0  0  0  0  0  0
   -8.3745   -1.3176    0.2044 H   0  0  0  0  0  0  0  0  0  0  0  0
   -7.9472   -1.3774   -1.4935 H   0  0  0  0  0  0  0  0  0  0  0  0
   -6.8401    0.5959   -1.2726 H   0  0  0  0  0  0  0  0  0  0  0  0
   -5.1295    1.5257    0.2454 H   0  0  0  0  0  0  0  0  0  0  0  0
   -8.3096    2.1809    1.7417 H   0  0  0  0  0  0  0  0  0  0  0  0
   -9.0196    0.9784    0.6478 H   0  0  0  0  0  0  0  0  0  0  0  0
   -8.1055    2.3664    0.0175 H   0  0  0  0  0  0  0  0  0  0  0  0
   -5.8615   -0.5150    2.2989 H   0  0  0  0  0  0  0  0  0  0  0  0
   -6.8410    0.7151    3.0573 H   0  0  0  0  0  0  0  0  0  0  0  0
   -7.6277   -0.6723    2.2815 H   0  0  0  0  0  0  0  0  0  0  0  0
    1.3346   -3.8358   -1.3033 H   0  0  0  0  0  0  0  0  0  0  0  0
    0.2277   -4.9999   -0.6732 H   0  0  0  0  0  0  0  0  0  0  0  0
   -0.3216   -3.8413   -1.8813 H   0  0  0  0  0  0  0  0  0  0  0  0
    3.3221   -1.0086   -1.7844 H   0  0  0  0  0  0  0  0  0  0  0  0
    1.8366   -1.7225   -2.3105 H   0  0  0  0  0  0  0  0  0  0  0  0
    2.9487   -2.6338   -1.2805 H   0  0  0  0  0  0  0  0  0  0  0  0
  1  2  1  0
  2  3  2  0
  2  4  1  0
  4  5  1  0
  5  6  1  0
  6  7  1  0
  7  8  1  0
  8  9  1  0
  9 10  1  0
 10 11  1  0
  9 12  1  0
  8 13  1  0
 13 14  1  0
 14 15  1  0
 15 16  1  0
 16 17  1  0
 17 18  1  0
 18 19  1  0
 19 20  1  0
 19 21  1  0
 18 22  1  0
 22 23  1  0
 23 24  1  0
 24 25  1  0
 25 26  1  0
 26 27  1  0
 27 28  1  0
 28 29  1  0
 29 30  1  0
 30 31  1  0
 31 32  1  0
 31 33  1  0
 33 34  1  0
 34 35  1  0
 35 36  1  0
 34 37  1  0
 33 38  1  0
 27 39  1  0
 39 40  1  0
 40 41  1  0
 40 42  1  0
 42 43  1  0
 43 44  1  0
 44 45  1  0
 45 46  1  0
 45 47  1  0
 47 48  1  0
 48 49  1  0
 49 50  1  0
 49 51  1  0
 51 52  1  0
 51 53  1  0
 51 54  1  0
 24 55  1  0
 17 56  1  0
 10  6  1  0
 19 14  1  0
 40 24  1  0
 50 45  1  0
 25 17  1  0
 35 29  1  0
 44 39  1  0
  1 57  1  0
  1 58  1  0
  1 59  1  0
  5 60  1  0
  5 61  1  0
  6 62  1  0
  8 63  1  0
  9 64  1  0
 10 65  1  0
 11 66  1  0
 12 67  1  0
 14 68  1  0
 15 69  1  0
 15 70  1  0
 16 71  1  0
 16 72  1  0
 18 73  1  0
 20 74  1  0
 20 75  1  0
 20 76  1  0
 21 77  1  0
 21 78  1  0
 21 79  1  0
 22 80  1  0
 22 81  1  0
 23 82  1  0
 23 83  1  0
 25 84  1  0
 26 85  1  0
 26 86  1  0
 27 87  1  0
 29 88  1  0
 31 89  1  0
 32 90  1  0
 32 91  1  0
 32 92  1  0
 33 93  1  0
 34 94  1  0
 35 95  1  0
 36 96  1  0
 37 97  1  0
 38 98  1  0
 39 99  1  0
 41100  1  0
 41101  1  0
 41102  1  0
 42103  1  0
 42104  1  0
 43105  1  0
 43106  1  0
 44107  1  0
 46108  1  0
 46109  1  0
 46110  1  0
 47111  1  0
 47112  1  0
 48113  1  0
 48114  1  0
 49115  1  0
 52116  1  0
 53117  1  0
 53118  1  0
 53119  1  0
 54120  1  0
 54121  1  0
 54122  1  0
 55123  1  0
 55124  1  0
 55125  1  0
 56126  1  0
 56127  1  0
 56128  1  0
M  END
