
     RDKit          3D

119123  0  0  0  0  0  0  0  0999 V2000
    1.3648    2.4261    0.6309 C   0  0  0  0  0  0  0  0  0  0  0  0
    1.7420    0.9531    0.3372 C   0  0  0  0  0  0  0  0  0  0  0  0
    0.5029   -0.0264    0.3729 C   0  0  0  0  0  0  0  0  0  0  0  0
   -0.1195   -0.1106    1.7853 C   0  0  0  0  0  0  0  0  0  0  0  0
   -1.5252   -0.6857    1.8044 C   0  0  0  0  0  0  0  0  0  0  0  0
   -2.5480    0.2037    1.0524 C   0  0  0  0  0  0  0  0  0  0  0  0
   -1.8943    0.8300   -0.2413 C   0  0  0  0  0  0  0  0  0  0  0  0
   -0.5632    0.1624   -0.7923 C   0  0  0  0  0  0  0  0  0  0  0  0
    0.0423    1.0173   -1.9493 C   0  0  0  0  0  0  0  0  0  0  0  0
    1.5095    0.7336   -2.2480 C   0  0  0  0  0  0  0  0  0  0  0  0
    2.4536    0.8500   -1.0501 C   0  0  0  0  0  0  0  0  0  0  0  0
    3.2783   -0.3294   -1.0705 O   0  0  0  0  0  0  0  0  0  0  0  0
    4.6498   -0.0598   -1.4035 C   0  0  0  0  0  0  0  0  0  0  0  0
    5.5236   -1.2610   -0.9479 C   0  0  0  0  0  0  0  0  0  0  0  0
    5.5512   -2.3660   -2.0183 C   0  0  0  0  0  0  0  0  0  0  0  0
    4.4354   -2.1971   -3.0507 C   0  0  0  0  0  0  0  0  0  0  0  0
    4.5707   -0.8254   -3.7258 C   0  0  0  0  0  0  0  0  0  0  0  0
    4.7824    0.2579   -2.7865 O   0  0  0  0  0  0  0  0  0  0  0  0
    5.7035   -0.7907   -4.8099 C   0  0  0  0  0  0  0  0  0  0  0  0
    6.2419   -1.9180   -5.0644 O   0  0  0  0  0  0  0  0  0  0  0  0
    5.9512    0.3271   -5.3405 O   0  0  0  0  0  1  0  0  0  0  0  0
    4.4507   -3.3172   -3.9572 O   0  0  0  0  0  0  0  0  0  0  0  0
    5.4268   -3.6709   -1.4075 O   0  0  0  0  0  0  0  0  0  0  0  0
    6.9008   -0.8799   -0.7338 O   0  0  0  0  0  0  0  0  0  0  0  0
    7.1942   -0.4559    0.6109 C   0  0  0  0  0  0  0  0  0  0  0  0
    8.7384   -0.4450    0.6702 C   0  0  0  0  0  0  0  0  0  0  0  0
    9.2429    0.1505    1.9847 C   0  0  0  0  0  0  0  0  0  0  0  0
    8.5826    1.5165    2.2463 C   0  0  0  0  0  0  0  0  0  0  0  0
    7.0648    1.4757    2.0687 C   0  0  0  0  0  0  0  0  0  0  0  0
    6.6801    0.8598    0.8097 O   0  0  0  0  0  0  0  0  0  0  0  0
    6.3932    0.8097    3.2963 C   0  0  0  0  0  0  0  0  0  0  0  0
    6.8224   -0.3411    3.6007 O   0  0  0  0  0  0  0  0  0  0  0  0
    5.5067    1.5041    3.8757 O   0  0  0  0  0  1  0  0  0  0  0  0
    9.1341    2.4778    1.3016 O   0  0  0  0  0  0  0  0  0  0  0  0
   10.6749    0.3242    1.9030 O   0  0  0  0  0  0  0  0  0  0  0  0
    9.2556    0.3576   -0.4350 O   0  0  0  0  0  0  0  0  0  0  0  0
   -0.8541   -1.2246   -1.4173 C   0  0  0  0  0  0  0  0  0  0  0  0
   -2.9477    1.2517   -1.2741 C   0  0  0  0  0  0  0  0  0  0  0  0
   -2.6543    1.8431   -2.3148 O   0  0  0  0  0  0  0  0  0  0  0  0
   -4.3949    1.0644   -1.0035 C   0  0  0  0  0  0  0  0  0  0  0  0
   -4.8940    0.2271   -0.0774 C   0  0  0  0  0  0  0  0  0  0  0  0
   -3.9387   -0.5990    0.7981 C   0  0  0  0  0  0  0  0  0  0  0  0
   -4.5773   -0.9904    2.1731 C   0  0  0  0  0  0  0  0  0  0  0  0
   -6.0592   -1.3548    2.1341 C   0  0  0  0  0  0  0  0  0  0  0  0
   -6.9212   -0.2688    1.4523 C   0  0  0  0  0  0  0  0  0  0  0  0
   -6.4057   -0.1087   -0.0107 C   0  0  0  0  0  0  0  0  0  0  0  0
   -7.3599    0.8079   -0.8210 C   0  0  0  0  0  0  0  0  0  0  0  0
   -8.8454    0.3569   -0.7777 C   0  0  0  0  0  0  0  0  0  0  0  0
   -9.0592   -0.8740    0.1237 C   0  0  0  0  0  0  0  0  0  0  0  0
   -8.4096   -0.7285    1.4974 C   0  0  0  0  0  0  0  0  0  0  0  0
   -9.7348    1.5252   -0.3235 C   0  0  0  0  0  0  0  0  0  0  0  0
   -9.2972   -0.1566   -2.1850 C   0  0  0  0  0  0  0  0  0  0  0  0
  -10.4236    0.2428   -2.5917 O   0  0  0  0  0  0  0  0  0  0  0  0
   -8.4972   -0.9578   -2.7522 O   0  0  0  0  0  1  0  0  0  0  0  0
   -6.8214    1.0549    2.2472 C   0  0  0  0  0  0  0  0  0  0  0  0
   -3.7547   -1.9285    0.0185 C   0  0  0  0  0  0  0  0  0  0  0  0
   -2.8241    1.4463    1.9897 C   0  0  0  0  0  0  0  0  0  0  0  0
    2.7588    0.5604    1.4487 C   0  0  0  0  0  0  0  0  0  0  0  0
    0.0000    0.0000    0.0000 Na  0  0  0  0  0 15  0  0  0  0  0  0
    0.0000    0.0000    0.0000 Na  0  0  0  0  0 15  0  0  0  0  0  0
    2.2443    3.0718    0.5258 H   0  0  0  0  0  0  0  0  0  0  0  0
    0.5967    2.8268   -0.0275 H   0  0  0  0  0  0  0  0  0  0  0  0
    1.0044    2.5615    1.6554 H   0  0  0  0  0  0  0  0  0  0  0  0
    0.9416   -1.0248    0.2099 H   0  0  0  0  0  0  0  0  0  0  0  0
    0.5153   -0.7474    2.4128 H   0  0  0  0  0  0  0  0  0  0  0  0
   -0.1286    0.8647    2.2753 H   0  0  0  0  0  0  0  0  0  0  0  0
   -1.4759   -1.6971    1.4007 H   0  0  0  0  0  0  0  0  0  0  0  0
   -1.8348   -0.8101    2.8501 H   0  0  0  0  0  0  0  0  0  0  0  0
   -1.5282    1.8196    0.0686 H   0  0  0  0  0  0  0  0  0  0  0  0
   -0.0785    2.0872   -1.7575 H   0  0  0  0  0  0  0  0  0  0  0  0
   -0.5125    0.8340   -2.8792 H   0  0  0  0  0  0  0  0  0  0  0  0
    1.5958   -0.2561   -2.7110 H   0  0  0  0  0  0  0  0  0  0  0  0
    1.8432    1.4375   -3.0231 H   0  0  0  0  0  0  0  0  0  0  0  0
    3.0759    1.7451   -1.1875 H   0  0  0  0  0  0  0  0  0  0  0  0
    4.9673    0.8284   -0.8525 H   0  0  0  0  0  0  0  0  0  0  0  0
    5.1228   -1.6771   -0.0163 H   0  0  0  0  0  0  0  0  0  0  0  0
    6.5261   -2.3920   -2.5174 H   0  0  0  0  0  0  0  0  0  0  0  0
    3.4673   -2.2737   -2.5432 H   0  0  0  0  0  0  0  0  0  0  0  0
    3.6431   -0.6061   -4.2710 H   0  0  0  0  0  0  0  0  0  0  0  0
    5.2268   -3.1193   -4.5515 H   0  0  0  0  0  0  0  0  0  0  0  0
    5.1562   -4.2435   -2.1553 H   0  0  0  0  0  0  0  0  0  0  0  0
    6.7762   -1.1732    1.3216 H   0  0  0  0  0  0  0  0  0  0  0  0
    9.1430   -1.4506    0.5151 H   0  0  0  0  0  0  0  0  0  0  0  0
    9.0570   -0.5422    2.8075 H   0  0  0  0  0  0  0  0  0  0  0  0
    8.8632    1.8838    3.2391 H   0  0  0  0  0  0  0  0  0  0  0  0
    6.6942    2.5062    2.0002 H   0  0  0  0  0  0  0  0  0  0  0  0
    8.8917    2.1247    0.4174 H   0  0  0  0  0  0  0  0  0  0  0  0
   10.7709    0.9573    1.1633 H   0  0  0  0  0  0  0  0  0  0  0  0
    8.6308    0.1600   -1.1706 H   0  0  0  0  0  0  0  0  0  0  0  0
   -1.1512   -1.9645   -0.6774 H   0  0  0  0  0  0  0  0  0  0  0  0
   -1.6311   -1.1594   -2.1848 H   0  0  0  0  0  0  0  0  0  0  0  0
    0.0371   -1.6391   -1.9018 H   0  0  0  0  0  0  0  0  0  0  0  0
   -5.0243    1.6008   -1.7031 H   0  0  0  0  0  0  0  0  0  0  0  0
   -4.0269   -1.8346    2.6058 H   0  0  0  0  0  0  0  0  0  0  0  0
   -4.4859   -0.1907    2.9068 H   0  0  0  0  0  0  0  0  0  0  0  0
   -6.4037   -1.5165    3.1643 H   0  0  0  0  0  0  0  0  0  0  0  0
   -6.1891   -2.3158    1.6204 H   0  0  0  0  0  0  0  0  0  0  0  0
   -6.4754   -1.0955   -0.4923 H   0  0  0  0  0  0  0  0  0  0  0  0
   -7.0289    0.8564   -1.8649 H   0  0  0  0  0  0  0  0  0  0  0  0
   -7.2640    1.8359   -0.4462 H   0  0  0  0  0  0  0  0  0  0  0  0
   -8.6513   -1.7799   -0.3427 H   0  0  0  0  0  0  0  0  0  0  0  0
  -10.1300   -1.0767    0.2516 H   0  0  0  0  0  0  0  0  0  0  0  0
   -8.5031   -1.6913    2.0164 H   0  0  0  0  0  0  0  0  0  0  0  0
   -9.0109   -0.0323    2.0964 H   0  0  0  0  0  0  0  0  0  0  0  0
   -9.5262    1.8219    0.7051 H   0  0  0  0  0  0  0  0  0  0  0  0
   -9.5836    2.4045   -0.9600 H   0  0  0  0  0  0  0  0  0  0  0  0
  -10.7982    1.2699   -0.3688 H   0  0  0  0  0  0  0  0  0  0  0  0
   -7.0501    0.8903    3.3073 H   0  0  0  0  0  0  0  0  0  0  0  0
   -5.8299    1.5103    2.1931 H   0  0  0  0  0  0  0  0  0  0  0  0
   -7.5271    1.8038    1.8787 H   0  0  0  0  0  0  0  0  0  0  0  0
   -3.0742   -2.6217    0.5184 H   0  0  0  0  0  0  0  0  0  0  0  0
   -4.6995   -2.4732   -0.0866 H   0  0  0  0  0  0  0  0  0  0  0  0
   -3.4015   -1.7606   -1.0012 H   0  0  0  0  0  0  0  0  0  0  0  0
   -3.6437    2.0664    1.6153 H   0  0  0  0  0  0  0  0  0  0  0  0
   -3.0497    1.1587    3.0209 H   0  0  0  0  0  0  0  0  0  0  0  0
   -1.9503    2.1019    2.0692 H   0  0  0  0  0  0  0  0  0  0  0  0
    2.3721    0.7660    2.4529 H   0  0  0  0  0  0  0  0  0  0  0  0
    3.0111   -0.5061    1.4113 H   0  0  0  0  0  0  0  0  0  0  0  0
    3.6883    1.1298    1.3439 H   0  0  0  0  0  0  0  0  0  0  0  0
  1  2  1  0
  2  3  1  0
  3  4  1  0
  4  5  1  0
  5  6  1  0
  6  7  1  0
  7  8  1  0
  8  9  1  0
  9 10  1  0
 10 11  1  0
 11 12  1  0
 12 13  1  0
 13 14  1  0
 14 15  1  0
 15 16  1  0
 16 17  1  0
 17 18  1  0
 17 19  1  0
 19 20  2  0
 19 21  1  0
 16 22  1  0
 15 23  1  0
 14 24  1  0
 24 25  1  0
 25 26  1  0
 26 27  1  0
 27 28  1  0
 28 29  1  0
 29 30  1  0
 29 31  1  0
 31 32  2  0
 31 33  1  0
 28 34  1  0
 27 35  1  0
 26 36  1  0
  8 37  1  0
  7 38  1  0
 38 39  2  0
 38 40  1  0
 40 41  2  0
 41 42  1  0
 42 43  1  0
 43 44  1  0
 44 45  1  0
 45 46  1  0
 46 47  1  0
 47 48  1  0
 48 49  1  0
 49 50  1  0
 48 51  1  0
 48 52  1  0
 52 53  2  0
 52 54  1  0
 45 55  1  0
 42 56  1  0
  6 57  1  0
  2 58  1  0
 11  2  1  0
  8  3  1  0
 42  6  1  0
 18 13  1  0
 30 25  1  0
 46 41  1  0
 50 45  1  0
  1 61  1  0
  1 62  1  0
  1 63  1  0
  3 64  1  0
  4 65  1  0
  4 66  1  0
  5 67  1  0
  5 68  1  0
  7 69  1  0
  9 70  1  0
  9 71  1  0
 10 72  1  0
 10 73  1  0
 11 74  1  0
 13 75  1  0
 14 76  1  0
 15 77  1  0
 16 78  1  0
 17 79  1  0
 22 80  1  0
 23 81  1  0
 25 82  1  0
 26 83  1  0
 27 84  1  0
 28 85  1  0
 29 86  1  0
 34 87  1  0
 35 88  1  0
 36 89  1  0
 37 90  1  0
 37 91  1  0
 37 92  1  0
 40 93  1  0
 43 94  1  0
 43 95  1  0
 44 96  1  0
 44 97  1  0
 46 98  1  0
 47 99  1  0
 47100  1  0
 49101  1  0
 49102  1  0
 50103  1  0
 50104  1  0
 51105  1  0
 51106  1  0
 51107  1  0
 55108  1  0
 55109  1  0
 55110  1  0
 56111  1  0
 56112  1  0
 56113  1  0
 57114  1  0
 57115  1  0
 57116  1  0
 58117  1  0
 58118  1  0
 58119  1  0
M  CHG  5  21  -1  33  -1  54  -1  59   1  60   1
M  END
