
     RDKit          3D

 73 75  0  0  0  0  0  0  0  0999 V2000
    7.5144    2.3270   -2.3933 O   0  0  0  0  0  0  0  0  0  0  0  0
    7.0066    3.2575   -1.4508 C   0  0  0  0  0  0  0  0  0  0  0  0
    5.6681    2.8295   -0.9278 C   0  0  0  0  0  0  0  0  0  0  0  0
    5.2789    1.6008   -0.5270 C   0  0  0  0  0  0  0  0  0  0  0  0
    3.8622    1.3639   -0.0346 C   0  0  0  0  0  0  0  0  0  0  0  0
    3.0088    0.6195   -1.0717 C   0  0  0  0  0  0  0  0  0  0  0  0
    1.5422    0.4699   -0.6660 C   0  0  0  0  0  0  0  0  0  0  0  0
    0.6225    1.4350   -0.9211 C   0  0  0  0  0  0  0  0  0  0  0  0
    0.9675    2.7409   -1.5685 C   0  0  0  0  0  0  0  0  0  0  0  0
    0.1566    3.6509   -1.6967 O   0  0  0  0  0  0  0  0  0  0  0  0
   -0.8374    1.3340   -0.5656 C   0  0  0  0  0  0  0  0  0  0  0  0
   -1.2943    0.0538    0.1533 C   0  0  0  0  0  0  0  0  0  0  0  0
   -0.4112   -1.1504   -0.2777 C   0  0  0  0  0  0  0  0  0  0  0  0
    1.1033   -0.8306    0.0873 C   0  0  0  0  0  0  0  0  0  0  0  0
    1.3287   -0.5266    1.5907 C   0  0  0  0  0  0  0  0  0  0  0  0
    1.9739   -2.0513   -0.3001 C   0  0  0  0  0  0  0  0  0  0  0  0
    1.4810   -3.3671    0.2822 C   0  0  0  0  0  0  0  0  0  0  0  0
    0.0829   -3.6756   -0.2174 C   0  0  0  0  0  0  0  0  0  0  0  0
   -0.9666   -2.5868    0.1295 C   0  0  0  0  0  0  0  0  0  0  0  0
   -1.3439   -2.7100    1.6226 C   0  0  0  0  0  0  0  0  0  0  0  0
   -2.2642   -2.9736   -0.6596 C   0  0  0  0  0  0  0  0  0  0  0  0
   -2.1518   -2.7604   -2.0628 O   0  0  0  0  0  0  0  0  0  0  0  0
   -2.6634   -0.1987   -0.1675 O   0  0  0  0  0  0  0  0  0  0  0  0
   -3.6010    0.6798    0.4704 C   0  0  0  0  0  0  0  0  0  0  0  0
   -3.5464    0.5365    1.8862 O   0  0  0  0  0  0  0  0  0  0  0  0
   -4.4745    1.4089    2.5413 C   0  0  0  0  0  0  0  0  0  0  0  0
   -5.9283    1.1277    2.1359 C   0  0  0  0  0  0  0  0  0  0  0  0
   -6.0805    1.1233    0.6116 C   0  0  0  0  0  0  0  0  0  0  0  0
   -4.9921    0.2819   -0.0566 C   0  0  0  0  0  0  0  0  0  0  0  0
   -5.0712    0.4718   -1.4821 O   0  0  0  0  0  0  0  0  0  0  0  0
   -6.0192    2.4677    0.1137 O   0  0  0  0  0  0  0  0  0  0  0  0
   -6.3297   -0.1389    2.6691 O   0  0  0  0  0  0  0  0  0  0  0  0
    6.1873    0.3995   -0.4647 C   0  0  0  0  0  0  0  0  0  0  0  0
    6.7846    2.1085   -2.9988 H   0  0  0  0  0  0  0  0  0  0  0  0
    7.7232    3.3802   -0.6326 H   0  0  0  0  0  0  0  0  0  0  0  0
    6.9098    4.2205   -1.9642 H   0  0  0  0  0  0  0  0  0  0  0  0
    4.9461    3.6449   -0.8748 H   0  0  0  0  0  0  0  0  0  0  0  0
    3.9097    0.7998    0.9020 H   0  0  0  0  0  0  0  0  0  0  0  0
    3.3874    2.3204    0.2188 H   0  0  0  0  0  0  0  0  0  0  0  0
    3.4590   -0.3491   -1.2987 H   0  0  0  0  0  0  0  0  0  0  0  0
    3.0734    1.1338   -2.0380 H   0  0  0  0  0  0  0  0  0  0  0  0
    2.0042    2.8739   -1.9050 H   0  0  0  0  0  0  0  0  0  0  0  0
   -1.4189    1.4358   -1.4949 H   0  0  0  0  0  0  0  0  0  0  0  0
   -1.1166    2.1925    0.0615 H   0  0  0  0  0  0  0  0  0  0  0  0
   -1.2071    0.1872    1.2363 H   0  0  0  0  0  0  0  0  0  0  0  0
   -0.4397   -1.1667   -1.3803 H   0  0  0  0  0  0  0  0  0  0  0  0
    0.9023    0.4361    1.8938 H   0  0  0  0  0  0  0  0  0  0  0  0
    0.9108   -1.2816    2.2519 H   0  0  0  0  0  0  0  0  0  0  0  0
    2.3966   -0.4830    1.8297 H   0  0  0  0  0  0  0  0  0  0  0  0
    2.0146   -2.1462   -1.3935 H   0  0  0  0  0  0  0  0  0  0  0  0
    3.0063   -1.9165    0.0455 H   0  0  0  0  0  0  0  0  0  0  0  0
    2.1582   -4.1709   -0.0326 H   0  0  0  0  0  0  0  0  0  0  0  0
    1.5155   -3.3516    1.3768 H   0  0  0  0  0  0  0  0  0  0  0  0
   -0.2307   -4.6467    0.1880 H   0  0  0  0  0  0  0  0  0  0  0  0
    0.1443   -3.8076   -1.3056 H   0  0  0  0  0  0  0  0  0  0  0  0
   -2.0405   -1.9262    1.9326 H   0  0  0  0  0  0  0  0  0  0  0  0
   -1.8423   -3.6685    1.8148 H   0  0  0  0  0  0  0  0  0  0  0  0
   -0.4823   -2.6884    2.2891 H   0  0  0  0  0  0  0  0  0  0  0  0
   -2.5048   -4.0354   -0.5035 H   0  0  0  0  0  0  0  0  0  0  0  0
   -3.1405   -2.4271   -0.3044 H   0  0  0  0  0  0  0  0  0  0  0  0
   -1.6185   -3.4867   -2.4277 H   0  0  0  0  0  0  0  0  0  0  0  0
   -3.3651    1.7134    0.1826 H   0  0  0  0  0  0  0  0  0  0  0  0
   -4.1958    2.4487    2.3274 H   0  0  0  0  0  0  0  0  0  0  0  0
   -4.3498    1.2449    3.6168 H   0  0  0  0  0  0  0  0  0  0  0  0
   -6.5666    1.8946    2.5887 H   0  0  0  0  0  0  0  0  0  0  0  0
   -7.0603    0.7262    0.3252 H   0  0  0  0  0  0  0  0  0  0  0  0
   -5.1759   -0.7824    0.1423 H   0  0  0  0  0  0  0  0  0  0  0  0
   -4.3205   -0.0458   -1.8470 H   0  0  0  0  0  0  0  0  0  0  0  0
   -5.9408    2.3701   -0.8613 H   0  0  0  0  0  0  0  0  0  0  0  0
   -7.2962   -0.2015    2.5675 H   0  0  0  0  0  0  0  0  0  0  0  0
    7.2405    0.6485   -0.6112 H   0  0  0  0  0  0  0  0  0  0  0  0
    5.8994   -0.3364   -1.2201 H   0  0  0  0  0  0  0  0  0  0  0  0
    6.1181   -0.0711    0.5208 H   0  0  0  0  0  0  0  0  0  0  0  0
  1  2  1  0
  2  3  1  0
  3  4  2  3
  4  5  1  0
  5  6  1  0
  6  7  1  0
  7  8  2  0
  8  9  1  0
  9 10  2  0
  8 11  1  0
 11 12  1  0
 12 13  1  0
 13 14  1  0
 14 15  1  0
 14 16  1  0
 16 17  1  0
 17 18  1  0
 18 19  1  0
 19 20  1  0
 19 21  1  0
 21 22  1  0
 12 23  1  0
 23 24  1  0
 24 25  1  0
 25 26  1  0
 26 27  1  0
 27 28  1  0
 28 29  1  0
 29 30  1  0
 28 31  1  0
 27 32  1  0
  4 33  1  0
 14  7  1  0
 29 24  1  0
 19 13  1  0
  1 34  1  0
  2 35  1  0
  2 36  1  0
  3 37  1  0
  5 38  1  0
  5 39  1  0
  6 40  1  0
  6 41  1  0
  9 42  1  0
 11 43  1  0
 11 44  1  0
 12 45  1  0
 13 46  1  0
 15 47  1  0
 15 48  1  0
 15 49  1  0
 16 50  1  0
 16 51  1  0
 17 52  1  0
 17 53  1  0
 18 54  1  0
 18 55  1  0
 20 56  1  0
 20 57  1  0
 20 58  1  0
 21 59  1  0
 21 60  1  0
 22 61  1  0
 24 62  1  0
 26 63  1  0
 26 64  1  0
 27 65  1  0
 28 66  1  0
 29 67  1  0
 30 68  1  0
 31 69  1  0
 32 70  1  0
 33 71  1  0
 33 72  1  0
 33 73  1  0
M  END
