
     RDKit          3D

 59 61  0  0  0  0  0  0  0  0999 V2000
   -5.5910    2.3323   -2.6039 O   0  0  0  0  0  0  0  0  0  0  0  0
   -6.6428    1.7965   -1.7999 C   0  0  0  0  0  0  0  0  0  0  0  0
   -6.1114    0.6157   -0.9824 C   0  0  0  0  0  0  0  0  0  0  0  0
   -5.0084    1.0931   -0.1919 O   0  0  0  0  0  0  0  0  0  0  0  0
   -4.3415    0.0371    0.5130 C   0  0  0  0  0  0  0  0  0  0  0  0
   -3.2521    0.5736    1.2788 O   0  0  0  0  0  0  0  0  0  0  0  0
   -2.0678    0.7714    0.6258 C   0  0  0  0  0  0  0  0  0  0  0  0
   -1.9110    0.9192   -0.7481 C   0  0  0  0  0  0  0  0  0  0  0  0
   -0.6383    1.1294   -1.2849 C   0  0  0  0  0  0  0  0  0  0  0  0
   -0.5954    1.2795   -2.6482 O   0  0  0  0  0  0  0  0  0  0  0  0
    0.5057    1.1841   -0.4675 C   0  0  0  0  0  0  0  0  0  0  0  0
    0.3274    1.0660    0.9162 C   0  0  0  0  0  0  0  0  0  0  0  0
   -0.9485    0.8645    1.4559 C   0  0  0  0  0  0  0  0  0  0  0  0
    1.3860    1.1685    1.7745 O   0  0  0  0  0  0  0  0  0  0  0  0
    1.8396    1.3672   -1.1174 C   0  0  0  0  0  0  0  0  0  0  0  0
    1.8642    1.8426   -2.2563 O   0  0  0  0  0  0  0  0  0  0  0  0
    3.1035    0.9318   -0.4022 C   0  0  0  0  0  0  0  0  0  0  0  0
    4.2730    0.7875   -1.3775 C   0  0  0  0  0  0  0  0  0  0  0  0
    5.4928    0.2041   -0.7068 C   0  0  0  0  0  0  0  0  0  0  0  0
    5.8414   -1.1395   -0.9079 C   0  0  0  0  0  0  0  0  0  0  0  0
    6.9649   -1.6929   -0.2803 C   0  0  0  0  0  0  0  0  0  0  0  0
    7.7524   -0.9079    0.5601 C   0  0  0  0  0  0  0  0  0  0  0  0
    7.3935    0.4297    0.7608 C   0  0  0  0  0  0  0  0  0  0  0  0
    6.2823    0.9897    0.1404 C   0  0  0  0  0  0  0  0  0  0  0  0
    8.1429    1.2268    1.5855 O   0  0  0  0  0  0  0  0  0  0  0  0
    8.8729   -1.3169    1.2365 O   0  0  0  0  0  0  0  0  0  0  0  0
    9.3087   -2.6494    0.9913 C   0  0  0  0  0  0  0  0  0  0  0  0
   -5.3156   -0.6253    1.5117 C   0  0  0  0  0  0  0  0  0  0  0  0
   -6.5872   -1.0785    0.7916 C   0  0  0  0  0  0  0  0  0  0  0  0
   -7.1928    0.0349   -0.0668 C   0  0  0  0  0  0  0  0  0  0  0  0
   -8.2844   -0.4894   -0.8220 O   0  0  0  0  0  0  0  0  0  0  0  0
   -7.5579   -1.5386    1.7499 O   0  0  0  0  0  0  0  0  0  0  0  0
   -4.7216   -1.7661    2.1494 O   0  0  0  0  0  0  0  0  0  0  0  0
   -4.8545    2.5188   -1.9899 H   0  0  0  0  0  0  0  0  0  0  0  0
   -6.9975    2.6030   -1.1505 H   0  0  0  0  0  0  0  0  0  0  0  0
   -7.4578    1.4931   -2.4643 H   0  0  0  0  0  0  0  0  0  0  0  0
   -5.7370   -0.1402   -1.6846 H   0  0  0  0  0  0  0  0  0  0  0  0
   -3.9705   -0.7260   -0.1861 H   0  0  0  0  0  0  0  0  0  0  0  0
   -2.7557    0.9029   -1.4286 H   0  0  0  0  0  0  0  0  0  0  0  0
    0.3107    1.5791   -2.8905 H   0  0  0  0  0  0  0  0  0  0  0  0
   -1.0920    0.7744    2.5307 H   0  0  0  0  0  0  0  0  0  0  0  0
    1.0734    1.0963    2.6932 H   0  0  0  0  0  0  0  0  0  0  0  0
    3.3523    1.6817    0.3563 H   0  0  0  0  0  0  0  0  0  0  0  0
    2.9211   -0.0337    0.0842 H   0  0  0  0  0  0  0  0  0  0  0  0
    4.5331    1.7626   -1.8093 H   0  0  0  0  0  0  0  0  0  0  0  0
    3.9820    0.1564   -2.2273 H   0  0  0  0  0  0  0  0  0  0  0  0
    5.2392   -1.7681   -1.5604 H   0  0  0  0  0  0  0  0  0  0  0  0
    7.1905   -2.7363   -0.4702 H   0  0  0  0  0  0  0  0  0  0  0  0
    6.0395    2.0332    0.3214 H   0  0  0  0  0  0  0  0  0  0  0  0
    8.8573    0.6450    1.9105 H   0  0  0  0  0  0  0  0  0  0  0  0
    8.5667   -3.3749    1.3384 H   0  0  0  0  0  0  0  0  0  0  0  0
    9.5458   -2.8006   -0.0669 H   0  0  0  0  0  0  0  0  0  0  0  0
   10.2264   -2.8115    1.5631 H   0  0  0  0  0  0  0  0  0  0  0  0
   -5.5679    0.0808    2.3117 H   0  0  0  0  0  0  0  0  0  0  0  0
   -6.3698   -1.9532    0.1664 H   0  0  0  0  0  0  0  0  0  0  0  0
   -7.5974    0.8159    0.5894 H   0  0  0  0  0  0  0  0  0  0  0  0
   -8.7717   -1.0998   -0.2336 H   0  0  0  0  0  0  0  0  0  0  0  0
   -7.8037   -0.7897    2.3243 H   0  0  0  0  0  0  0  0  0  0  0  0
   -5.4461   -2.2473    2.5953 H   0  0  0  0  0  0  0  0  0  0  0  0
  1  2  1  0
  2  3  1  0
  3  4  1  0
  4  5  1  0
  5  6  1  0
  6  7  1  0
  7  8  2  0
  8  9  1  0
  9 10  1  0
  9 11  2  0
 11 12  1  0
 12 13  2  0
 12 14  1  0
 11 15  1  0
 15 16  2  0
 15 17  1  0
 17 18  1  0
 18 19  1  0
 19 20  2  0
 20 21  1  0
 21 22  2  0
 22 23  1  0
 23 24  2  0
 23 25  1  0
 22 26  1  0
 26 27  1  0
  5 28  1  0
 28 29  1  0
 29 30  1  0
 30 31  1  0
 29 32  1  0
 28 33  1  0
 30  3  1  0
 13  7  1  0
 24 19  1  0
  1 34  1  0
  2 35  1  0
  2 36  1  0
  3 37  1  0
  5 38  1  0
  8 39  1  0
 10 40  1  0
 13 41  1  0
 14 42  1  0
 17 43  1  0
 17 44  1  0
 18 45  1  0
 18 46  1  0
 20 47  1  0
 21 48  1  0
 24 49  1  0
 25 50  1  0
 27 51  1  0
 27 52  1  0
 27 53  1  0
 28 54  1  0
 29 55  1  0
 30 56  1  0
 31 57  1  0
 32 58  1  0
 33 59  1  0
M  END
