
     RDKit          3D

 35 37  0  0  0  0  0  0  0  0999 V2000
    5.8479   -0.6761   -0.8414 C   0  0  0  0  0  0  0  0  0  0  0  0
    4.9989   -1.2080    0.1692 O   0  0  0  0  0  0  0  0  0  0  0  0
    3.7036   -0.7584    0.1773 C   0  0  0  0  0  0  0  0  0  0  0  0
    3.1395    0.1486   -0.7168 C   0  0  0  0  0  0  0  0  0  0  0  0
    1.7936    0.5167   -0.5859 C   0  0  0  0  0  0  0  0  0  0  0  0
    0.9924   -0.0087    0.4415 C   0  0  0  0  0  0  0  0  0  0  0  0
    1.5642   -0.9257    1.3334 C   0  0  0  0  0  0  0  0  0  0  0  0
    2.9001   -1.2857    1.1938 C   0  0  0  0  0  0  0  0  0  0  0  0
    3.4214   -2.1842    2.0861 O   0  0  0  0  0  0  0  0  0  0  0  0
   -0.4719    0.3618    0.5777 C   0  0  0  0  0  0  0  0  0  0  0  0
   -0.6745    1.7110    0.1316 O   0  0  0  0  0  0  0  0  0  0  0  0
   -1.9835    2.1776    0.4734 C   0  0  0  0  0  0  0  0  0  0  0  0
   -3.0831    1.2261    0.0656 C   0  0  0  0  0  0  0  0  0  0  0  0
   -2.7904   -0.1128   -0.2475 C   0  0  0  0  0  0  0  0  0  0  0  0
   -1.3555   -0.5783   -0.2553 C   0  0  0  0  0  0  0  0  0  0  0  0
   -3.8231   -0.9875   -0.6065 C   0  0  0  0  0  0  0  0  0  0  0  0
   -5.1442   -0.5418   -0.6277 C   0  0  0  0  0  0  0  0  0  0  0  0
   -5.4405    0.7794   -0.2984 C   0  0  0  0  0  0  0  0  0  0  0  0
   -4.4156    1.6602    0.0487 C   0  0  0  0  0  0  0  0  0  0  0  0
    5.4904   -0.9478   -1.8401 H   0  0  0  0  0  0  0  0  0  0  0  0
    5.9523    0.4091   -0.7388 H   0  0  0  0  0  0  0  0  0  0  0  0
    6.8398   -1.1195   -0.7112 H   0  0  0  0  0  0  0  0  0  0  0  0
    3.7099    0.5906   -1.5263 H   0  0  0  0  0  0  0  0  0  0  0  0
    1.3682    1.2267   -1.2940 H   0  0  0  0  0  0  0  0  0  0  0  0
    0.9792   -1.3633    2.1379 H   0  0  0  0  0  0  0  0  0  0  0  0
    4.3545   -2.2891    1.8160 H   0  0  0  0  0  0  0  0  0  0  0  0
   -0.7427    0.3124    1.6422 H   0  0  0  0  0  0  0  0  0  0  0  0
   -2.0249    2.3497    1.5554 H   0  0  0  0  0  0  0  0  0  0  0  0
   -2.1195    3.1396   -0.0316 H   0  0  0  0  0  0  0  0  0  0  0  0
   -1.2862   -1.6010    0.1348 H   0  0  0  0  0  0  0  0  0  0  0  0
   -1.0213   -0.5907   -1.3010 H   0  0  0  0  0  0  0  0  0  0  0  0
   -3.6028   -2.0189   -0.8722 H   0  0  0  0  0  0  0  0  0  0  0  0
   -5.9430   -1.2251   -0.9037 H   0  0  0  0  0  0  0  0  0  0  0  0
   -6.4711    1.1244   -0.3143 H   0  0  0  0  0  0  0  0  0  0  0  0
   -4.6619    2.6885    0.3037 H   0  0  0  0  0  0  0  0  0  0  0  0
  1  2  1  0
  2  3  1  0
  3  4  2  0
  4  5  1  0
  5  6  2  0
  6  7  1  0
  7  8  2  0
  8  9  1  0
  6 10  1  0
 10 11  1  0
 11 12  1  0
 12 13  1  0
 13 14  2  0
 14 15  1  0
 14 16  1  0
 16 17  2  0
 17 18  1  0
 18 19  2  0
  8  3  1  0
 15 10  1  0
 19 13  1  0
  1 20  1  0
  1 21  1  0
  1 22  1  0
  4 23  1  0
  5 24  1  0
  7 25  1  0
  9 26  1  0
 10 27  1  0
 12 28  1  0
 12 29  1  0
 15 30  1  0
 15 31  1  0
 16 32  1  0
 17 33  1  0
 18 34  1  0
 19 35  1  0
M  END
