
     RDKit          3D

 82 85  0  0  0  0  0  0  0  0999 V2000
    9.6737    5.0311    1.4450 C   0  0  0  0  0  0  0  0  0  0  0  0
    9.1252    3.9026    0.5941 C   0  0  0  0  0  0  0  0  0  0  0  0
    7.7000    3.9855    0.6323 O   0  0  0  0  0  0  0  0  0  0  0  0
    7.0074    3.0585   -0.1023 C   0  0  0  0  0  0  0  0  0  0  0  0
    7.5581    2.0820   -0.9248 C   0  0  0  0  0  0  0  0  0  0  0  0
    6.7198    1.1988   -1.6194 C   0  0  0  0  0  0  0  0  0  0  0  0
    5.3240    1.2750   -1.4935 C   0  0  0  0  0  0  0  0  0  0  0  0
    4.7743    2.2583   -0.6648 C   0  0  0  0  0  0  0  0  0  0  0  0
    5.6144    3.1324    0.0158 C   0  0  0  0  0  0  0  0  0  0  0  0
    5.0445    4.0844    0.8221 O   0  0  0  0  0  0  0  0  0  0  0  0
    4.4266    0.3122   -2.2364 C   0  0  0  0  0  0  0  0  0  0  0  0
    4.5192   -1.1256   -1.7288 C   0  0  0  0  0  0  0  0  0  0  0  0
    3.9642   -1.2868   -0.3289 C   0  0  0  0  0  0  0  0  0  0  0  0
    4.7360   -1.2696    0.6376 O   0  0  0  0  0  0  0  0  0  0  0  0
    2.5013   -1.4928   -0.0550 C   0  0  0  0  0  0  0  0  0  0  0  0
    1.4994   -1.5432   -1.0369 C   0  0  0  0  0  0  0  0  0  0  0  0
    1.7870   -1.3591   -2.3629 O   0  0  0  0  0  0  0  0  0  0  0  0
    0.1551   -1.7884   -0.6958 C   0  0  0  0  0  0  0  0  0  0  0  0
   -0.2117   -1.9860    0.6325 C   0  0  0  0  0  0  0  0  0  0  0  0
    0.7675   -1.9289    1.6185 C   0  0  0  0  0  0  0  0  0  0  0  0
    2.0999   -1.6824    1.2828 C   0  0  0  0  0  0  0  0  0  0  0  0
    2.9625   -1.6554    2.3506 O   0  0  0  0  0  0  0  0  0  0  0  0
   -1.4637   -2.2724    1.0930 O   0  0  0  0  0  0  0  0  0  0  0  0
   -2.5860   -2.1344    0.2104 C   0  0  0  0  0  0  0  0  0  0  0  0
   -2.5834   -3.2028   -0.7586 O   0  0  0  0  0  0  0  0  0  0  0  0
   -3.8923   -3.5219   -1.2498 C   0  0  0  0  0  0  0  0  0  0  0  0
   -3.7630   -4.4026   -2.4981 C   0  0  0  0  0  0  0  0  0  0  0  0
   -5.0095   -4.5431   -3.1823 O   0  0  0  0  0  0  0  0  0  0  0  0
   -4.7452   -4.1511   -0.1252 C   0  0  0  0  0  0  0  0  0  0  0  0
   -4.3170   -3.6029    1.2475 C   0  0  0  0  0  0  0  0  0  0  0  0
   -3.8417   -2.1499    1.1330 C   0  0  0  0  0  0  0  0  0  0  0  0
   -4.9302   -1.3642    0.5983 O   0  0  0  0  0  0  0  0  0  0  0  0
   -4.9142   -0.0123    1.0643 C   0  0  0  0  0  0  0  0  0  0  0  0
   -3.8433    0.6854    0.4381 O   0  0  0  0  0  0  0  0  0  0  0  0
   -3.7590    2.0565    0.8506 C   0  0  0  0  0  0  0  0  0  0  0  0
   -2.5492    2.6626    0.1479 C   0  0  0  0  0  0  0  0  0  0  0  0
   -5.0470    2.8235    0.5131 C   0  0  0  0  0  0  0  0  0  0  0  0
   -6.2653    2.0929    1.0891 C   0  0  0  0  0  0  0  0  0  0  0  0
   -6.2666    0.6224    0.6870 C   0  0  0  0  0  0  0  0  0  0  0  0
   -6.5016    0.5491   -0.7354 O   0  0  0  0  0  0  0  0  0  0  0  0
   -7.4558    2.7446    0.6201 O   0  0  0  0  0  0  0  0  0  0  0  0
   -5.0030    4.1456    1.0512 O   0  0  0  0  0  0  0  0  0  0  0  0
   -5.4230   -3.7349    2.1561 O   0  0  0  0  0  0  0  0  0  0  0  0
   -4.6050   -5.5790   -0.0607 O   0  0  0  0  0  0  0  0  0  0  0  0
   10.7653    5.0461    1.4257 H   0  0  0  0  0  0  0  0  0  0  0  0
    9.3396    4.9318    2.4850 H   0  0  0  0  0  0  0  0  0  0  0  0
    9.3015    5.9975    1.0891 H   0  0  0  0  0  0  0  0  0  0  0  0
    9.4874    4.0243   -0.4330 H   0  0  0  0  0  0  0  0  0  0  0  0
    9.4650    2.9441    1.0046 H   0  0  0  0  0  0  0  0  0  0  0  0
    8.6289    1.9711   -1.0484 H   0  0  0  0  0  0  0  0  0  0  0  0
    7.1657    0.4383   -2.2576 H   0  0  0  0  0  0  0  0  0  0  0  0
    3.6968    2.3518   -0.5391 H   0  0  0  0  0  0  0  0  0  0  0  0
    5.8022    4.5601    1.2156 H   0  0  0  0  0  0  0  0  0  0  0  0
    4.7085    0.3405   -3.2959 H   0  0  0  0  0  0  0  0  0  0  0  0
    3.3919    0.6706   -2.1906 H   0  0  0  0  0  0  0  0  0  0  0  0
    4.0356   -1.8295   -2.4120 H   0  0  0  0  0  0  0  0  0  0  0  0
    5.5657   -1.4584   -1.7029 H   0  0  0  0  0  0  0  0  0  0  0  0
    1.0023   -1.5559   -2.9031 H   0  0  0  0  0  0  0  0  0  0  0  0
   -0.5907   -1.8459   -1.4820 H   0  0  0  0  0  0  0  0  0  0  0  0
    0.5018   -2.0819    2.6601 H   0  0  0  0  0  0  0  0  0  0  0  0
    3.8662   -1.4644    2.0059 H   0  0  0  0  0  0  0  0  0  0  0  0
   -2.5214   -1.1868   -0.3360 H   0  0  0  0  0  0  0  0  0  0  0  0
   -4.3628   -2.5811   -1.5687 H   0  0  0  0  0  0  0  0  0  0  0  0
   -3.3846   -5.4001   -2.2496 H   0  0  0  0  0  0  0  0  0  0  0  0
   -3.0371   -3.9664   -3.1970 H   0  0  0  0  0  0  0  0  0  0  0  0
   -5.2865   -3.6655   -3.4911 H   0  0  0  0  0  0  0  0  0  0  0  0
   -5.8050   -3.9577   -0.3257 H   0  0  0  0  0  0  0  0  0  0  0  0
   -3.5078   -4.2208    1.6583 H   0  0  0  0  0  0  0  0  0  0  0  0
   -3.5987   -1.7841    2.1397 H   0  0  0  0  0  0  0  0  0  0  0  0
   -4.7940    0.0092    2.1556 H   0  0  0  0  0  0  0  0  0  0  0  0
   -3.5722    2.0893    1.9315 H   0  0  0  0  0  0  0  0  0  0  0  0
   -2.3883    3.7037    0.4431 H   0  0  0  0  0  0  0  0  0  0  0  0
   -2.6763    2.6223   -0.9405 H   0  0  0  0  0  0  0  0  0  0  0  0
   -1.6415    2.0894    0.3748 H   0  0  0  0  0  0  0  0  0  0  0  0
   -5.1613    2.9258   -0.5708 H   0  0  0  0  0  0  0  0  0  0  0  0
   -6.2699    2.1856    2.1806 H   0  0  0  0  0  0  0  0  0  0  0  0
   -7.0979    0.0840    1.1541 H   0  0  0  0  0  0  0  0  0  0  0  0
   -6.0758   -0.2806   -1.0266 H   0  0  0  0  0  0  0  0  0  0  0  0
   -7.6403    2.3469   -0.2584 H   0  0  0  0  0  0  0  0  0  0  0  0
   -5.9199    4.4814    0.9926 H   0  0  0  0  0  0  0  0  0  0  0  0
   -5.0812   -3.5624    3.0522 H   0  0  0  0  0  0  0  0  0  0  0  0
   -5.2946   -5.8857    0.5551 H   0  0  0  0  0  0  0  0  0  0  0  0
  1  2  1  0
  2  3  1  0
  3  4  1  0
  4  5  2  0
  5  6  1  0
  6  7  2  0
  7  8  1  0
  8  9  2  0
  9 10  1  0
  7 11  1  0
 11 12  1  0
 12 13  1  0
 13 14  2  0
 13 15  1  0
 15 16  2  0
 16 17  1  0
 16 18  1  0
 18 19  2  0
 19 20  1  0
 20 21  2  0
 21 22  1  0
 19 23  1  0
 23 24  1  0
 24 25  1  0
 25 26  1  0
 26 27  1  0
 27 28  1  0
 26 29  1  0
 29 30  1  0
 30 31  1  0
 31 32  1  0
 32 33  1  0
 33 34  1  0
 34 35  1  0
 35 36  1  0
 35 37  1  0
 37 38  1  0
 38 39  1  0
 39 40  1  0
 38 41  1  0
 37 42  1  0
 30 43  1  0
 29 44  1  0
  9  4  1  0
 21 15  1  0
 31 24  1  0
 39 33  1  0
  1 45  1  0
  1 46  1  0
  1 47  1  0
  2 48  1  0
  2 49  1  0
  5 50  1  0
  6 51  1  0
  8 52  1  0
 10 53  1  0
 11 54  1  0
 11 55  1  0
 12 56  1  0
 12 57  1  0
 17 58  1  0
 18 59  1  0
 20 60  1  0
 22 61  1  0
 24 62  1  0
 26 63  1  0
 27 64  1  0
 27 65  1  0
 28 66  1  0
 29 67  1  0
 30 68  1  0
 31 69  1  0
 33 70  1  0
 35 71  1  0
 36 72  1  0
 36 73  1  0
 36 74  1  0
 37 75  1  0
 38 76  1  0
 39 77  1  0
 40 78  1  0
 41 79  1  0
 42 80  1  0
 43 81  1  0
 44 82  1  0
M  END
