
     RDKit          3D

 32 33  0  0  0  0  0  0  0  0999 V2000
   -5.4186    1.3256    0.5106 C   0  0  0  0  0  0  0  0  0  0  0  0
   -4.8610    0.1971   -0.1534 O   0  0  0  0  0  0  0  0  0  0  0  0
   -3.5050    0.0297   -0.0423 C   0  0  0  0  0  0  0  0  0  0  0  0
   -2.6297    0.8404    0.6766 C   0  0  0  0  0  0  0  0  0  0  0  0
   -1.2595    0.5450    0.7014 C   0  0  0  0  0  0  0  0  0  0  0  0
   -0.7403   -0.5578    0.0003 C   0  0  0  0  0  0  0  0  0  0  0  0
   -1.6297   -1.3772   -0.7088 C   0  0  0  0  0  0  0  0  0  0  0  0
   -2.9871   -1.0755   -0.7255 C   0  0  0  0  0  0  0  0  0  0  0  0
   -3.8200   -1.8988   -1.4342 O   0  0  0  0  0  0  0  0  0  0  0  0
    0.7366   -0.9168    0.0401 C   0  0  0  0  0  0  0  0  0  0  0  0
    1.5070    0.2648    0.2660 O   0  0  0  0  0  0  0  0  0  0  0  0
    2.8393    0.2205   -0.0377 C   0  0  0  0  0  0  0  0  0  0  0  0
    3.6002   -0.9349   -0.2189 C   0  0  0  0  0  0  0  0  0  0  0  0
    4.9621   -0.8391   -0.5213 C   0  0  0  0  0  0  0  0  0  0  0  0
    5.5698    0.4099   -0.6371 C   0  0  0  0  0  0  0  0  0  0  0  0
    4.8181    1.5662   -0.4443 C   0  0  0  0  0  0  0  0  0  0  0  0
    3.4588    1.4692   -0.1415 C   0  0  0  0  0  0  0  0  0  0  0  0
    0.9398   -1.8735    1.0749 O   0  0  0  0  0  0  0  0  0  0  0  0
   -5.0081    2.2600    0.1137 H   0  0  0  0  0  0  0  0  0  0  0  0
   -6.4958    1.3271    0.3184 H   0  0  0  0  0  0  0  0  0  0  0  0
   -5.2736    1.2569    1.5937 H   0  0  0  0  0  0  0  0  0  0  0  0
   -2.9729    1.7079    1.2302 H   0  0  0  0  0  0  0  0  0  0  0  0
   -0.5942    1.1902    1.2740 H   0  0  0  0  0  0  0  0  0  0  0  0
   -1.2733   -2.2520   -1.2473 H   0  0  0  0  0  0  0  0  0  0  0  0
   -4.7106   -1.5134   -1.3201 H   0  0  0  0  0  0  0  0  0  0  0  0
    1.0082   -1.3629   -0.9256 H   0  0  0  0  0  0  0  0  0  0  0  0
    3.1686   -1.9254   -0.1116 H   0  0  0  0  0  0  0  0  0  0  0  0
    5.5496   -1.7434   -0.6584 H   0  0  0  0  0  0  0  0  0  0  0  0
    6.6289    0.4807   -0.8703 H   0  0  0  0  0  0  0  0  0  0  0  0
    5.2877    2.5425   -0.5270 H   0  0  0  0  0  0  0  0  0  0  0  0
    2.8765    2.3745    0.0100 H   0  0  0  0  0  0  0  0  0  0  0  0
    0.2283   -1.7375    1.7210 H   0  0  0  0  0  0  0  0  0  0  0  0
  1  2  1  0
  2  3  1  0
  3  4  2  0
  4  5  1  0
  5  6  2  0
  6  7  1  0
  7  8  2  0
  8  9  1  0
  6 10  1  0
 10 11  1  0
 11 12  1  0
 12 13  2  0
 13 14  1  0
 14 15  2  0
 15 16  1  0
 16 17  2  0
 10 18  1  0
  8  3  1  0
 17 12  1  0
  1 19  1  0
  1 20  1  0
  1 21  1  0
  4 22  1  0
  5 23  1  0
  7 24  1  0
  9 25  1  0
 10 26  1  0
 13 27  1  0
 14 28  1  0
 15 29  1  0
 16 30  1  0
 17 31  1  0
 18 32  1  0
M  END
