
     RDKit          3D

 34 37  0  0  0  0  0  0  0  0999 V2000
   -4.6868    1.0398   -1.5195 O   0  0  0  0  0  0  0  0  0  0  0  0
   -3.5664    0.6266   -0.8510 C   0  0  0  0  0  0  0  0  0  0  0  0
   -2.8983   -0.5425   -1.1944 C   0  0  0  0  0  0  0  0  0  0  0  0
   -1.7804   -0.8690   -0.4489 C   0  0  0  0  0  0  0  0  0  0  0  0
   -1.0408   -2.0026   -0.6556 O   0  0  0  0  0  0  0  0  0  0  0  0
   -0.1549   -2.0652    0.4916 C   0  0  0  0  0  0  0  0  0  0  0  0
   -0.0623   -0.6636    1.1576 C   0  0  0  0  0  0  0  0  0  0  0  0
   -1.3102   -0.0702    0.5877 C   0  0  0  0  0  0  0  0  0  0  0  0
   -1.9799    1.0923    0.9384 C   0  0  0  0  0  0  0  0  0  0  0  0
   -3.1133    1.4280    0.2066 C   0  0  0  0  0  0  0  0  0  0  0  0
   -3.7933    2.5679    0.5304 O   0  0  0  0  0  0  0  0  0  0  0  0
    1.1918    0.0953    0.7970 C   0  0  0  0  0  0  0  0  0  0  0  0
    1.4847    1.3279    1.4133 C   0  0  0  0  0  0  0  0  0  0  0  0
    2.6142    2.0660    1.0447 C   0  0  0  0  0  0  0  0  0  0  0  0
    3.4535    1.5766    0.0567 C   0  0  0  0  0  0  0  0  0  0  0  0
    3.1863    0.3574   -0.5511 C   0  0  0  0  0  0  0  0  0  0  0  0
    2.0763   -0.3952   -0.1696 C   0  0  0  0  0  0  0  0  0  0  0  0
    1.9063   -1.5985   -0.8020 O   0  0  0  0  0  0  0  0  0  0  0  0
    1.2209   -2.5481    0.0231 C   0  0  0  0  0  0  0  0  0  0  0  0
    4.0445   -0.0926   -1.5202 O   0  0  0  0  0  0  0  0  0  0  0  0
    4.5496    2.3005   -0.3124 O   0  0  0  0  0  0  0  0  0  0  0  0
   -0.6732   -3.0416    1.4063 O   0  0  0  0  0  0  0  0  0  0  0  0
   -4.8585    0.4100   -2.2413 H   0  0  0  0  0  0  0  0  0  0  0  0
   -3.2262   -1.1871   -2.0001 H   0  0  0  0  0  0  0  0  0  0  0  0
   -0.1337   -0.7600    2.2481 H   0  0  0  0  0  0  0  0  0  0  0  0
   -1.6425    1.7325    1.7453 H   0  0  0  0  0  0  0  0  0  0  0  0
   -4.5274    2.6084   -0.1151 H   0  0  0  0  0  0  0  0  0  0  0  0
    0.8277    1.7318    2.1808 H   0  0  0  0  0  0  0  0  0  0  0  0
    2.8297    3.0196    1.5179 H   0  0  0  0  0  0  0  0  0  0  0  0
    1.8606   -2.8195    0.8741 H   0  0  0  0  0  0  0  0  0  0  0  0
    1.1061   -3.4598   -0.5753 H   0  0  0  0  0  0  0  0  0  0  0  0
    3.6543   -0.9350   -1.8282 H   0  0  0  0  0  0  0  0  0  0  0  0
    4.9726    1.7650   -1.0135 H   0  0  0  0  0  0  0  0  0  0  0  0
   -1.5311   -2.6949    1.7062 H   0  0  0  0  0  0  0  0  0  0  0  0
  1  2  1  0
  2  3  2  0
  3  4  1  0
  4  5  1  0
  5  6  1  0
  6  7  1  0
  7  8  1  0
  8  9  1  0
  9 10  2  0
 10 11  1  0
  7 12  1  0
 12 13  2  0
 13 14  1  0
 14 15  2  0
 15 16  1  0
 16 17  2  0
 17 18  1  0
 18 19  1  0
 16 20  1  0
 15 21  1  0
  6 22  1  0
 10  2  1  0
 17 12  1  0
  8  4  2  0
 19  6  1  0
  1 23  1  0
  3 24  1  0
  7 25  1  0
  9 26  1  0
 11 27  1  0
 13 28  1  0
 14 29  1  0
 19 30  1  0
 19 31  1  0
 20 32  1  0
 21 33  1  0
 22 34  1  0
M  END
