
     RDKit          3D

 34 37  0  0  0  0  0  0  0  0999 V2000
    5.1684    0.9050   -0.1179 C   0  0  0  0  0  0  0  0  0  0  0  0
    4.3769    0.1983    0.8295 O   0  0  0  0  0  0  0  0  0  0  0  0
    3.0939   -0.1017    0.4577 C   0  0  0  0  0  0  0  0  0  0  0  0
    2.3356   -0.7462    1.4521 C   0  0  0  0  0  0  0  0  0  0  0  0
    1.0048   -1.1137    1.2273 C   0  0  0  0  0  0  0  0  0  0  0  0
    0.4463   -0.8300   -0.0071 C   0  0  0  0  0  0  0  0  0  0  0  0
    1.2050   -0.2119   -0.9886 C   0  0  0  0  0  0  0  0  0  0  0  0
    2.5185    0.1698   -0.7839 C   0  0  0  0  0  0  0  0  0  0  0  0
    0.5407   -0.0217   -2.1707 O   0  0  0  0  0  0  0  0  0  0  0  0
   -0.6855   -0.7812   -2.0194 C   0  0  0  0  0  0  0  0  0  0  0  0
   -0.9383   -1.0742   -0.5143 C   0  0  0  0  0  0  0  0  0  0  0  0
   -1.9846   -0.1841    0.1103 C   0  0  0  0  0  0  0  0  0  0  0  0
   -2.4310   -0.4170    1.4216 C   0  0  0  0  0  0  0  0  0  0  0  0
   -3.3569    0.4388    2.0217 C   0  0  0  0  0  0  0  0  0  0  0  0
   -3.8465    1.5381    1.3208 C   0  0  0  0  0  0  0  0  0  0  0  0
   -3.4236    1.7708    0.0138 C   0  0  0  0  0  0  0  0  0  0  0  0
   -2.5174    0.9012   -0.5926 C   0  0  0  0  0  0  0  0  0  0  0  0
   -2.1747    1.1897   -1.8848 O   0  0  0  0  0  0  0  0  0  0  0  0
   -1.8400    0.0159   -2.6315 C   0  0  0  0  0  0  0  0  0  0  0  0
   -0.5472   -2.0005   -2.7655 O   0  0  0  0  0  0  0  0  0  0  0  0
    4.7228    1.8754   -0.3607 H   0  0  0  0  0  0  0  0  0  0  0  0
    6.1460    1.0921    0.3370 H   0  0  0  0  0  0  0  0  0  0  0  0
    5.3303    0.3063   -1.0203 H   0  0  0  0  0  0  0  0  0  0  0  0
    2.7932   -0.9542    2.4173 H   0  0  0  0  0  0  0  0  0  0  0  0
    0.4354   -1.5999    2.0122 H   0  0  0  0  0  0  0  0  0  0  0  0
    3.0547    0.6565   -1.5885 H   0  0  0  0  0  0  0  0  0  0  0  0
   -1.2244   -2.1250   -0.3806 H   0  0  0  0  0  0  0  0  0  0  0  0
   -2.0532   -1.2628    1.9911 H   0  0  0  0  0  0  0  0  0  0  0  0
   -3.6886    0.2533    3.0402 H   0  0  0  0  0  0  0  0  0  0  0  0
   -4.5588    2.2120    1.7893 H   0  0  0  0  0  0  0  0  0  0  0  0
   -3.8087    2.6234   -0.5392 H   0  0  0  0  0  0  0  0  0  0  0  0
   -1.5630    0.3503   -3.6385 H   0  0  0  0  0  0  0  0  0  0  0  0
   -2.7366   -0.6076   -2.7523 H   0  0  0  0  0  0  0  0  0  0  0  0
    0.2064   -2.4650   -2.3626 H   0  0  0  0  0  0  0  0  0  0  0  0
  1  2  1  0
  2  3  1  0
  3  4  2  0
  4  5  1  0
  5  6  2  0
  6  7  1  0
  7  8  2  0
  7  9  1  0
  9 10  1  0
 10 11  1  0
 11 12  1  0
 12 13  2  0
 13 14  1  0
 14 15  2  0
 15 16  1  0
 16 17  2  0
 17 18  1  0
 18 19  1  0
 10 20  1  0
  8  3  1  0
 19 10  1  0
 11  6  1  0
 17 12  1  0
  1 21  1  0
  1 22  1  0
  1 23  1  0
  4 24  1  0
  5 25  1  0
  8 26  1  0
 11 27  1  0
 13 28  1  0
 14 29  1  0
 15 30  1  0
 16 31  1  0
 19 32  1  0
 19 33  1  0
 20 34  1  0
M  END
