
     RDKit          3D

 45 45  0  0  0  0  0  0  0  0999 V2000
    0.3756   -3.0737    0.2766 O   0  0  0  0  0  0  0  0  0  0  0  0
   -0.9687   -2.5725    0.3502 C   0  0  0  0  0  0  0  0  0  0  0  0
   -0.9956   -1.0515    0.1301 C   0  0  0  0  0  0  0  0  0  0  0  0
   -2.3500   -0.3742    0.4513 C   0  0  0  0  0  0  0  0  0  0  0  0
   -3.5105   -0.7970   -0.4611 C   0  0  0  0  0  0  0  0  0  0  0  0
   -4.8194   -0.1007   -0.0692 C   0  0  0  0  0  0  0  0  0  0  0  0
   -5.7633   -0.7711    0.3695 O   0  0  0  0  0  0  0  0  0  0  0  0
   -4.9318    1.4105   -0.2367 C   0  0  0  0  0  0  0  0  0  0  0  0
   -4.0645    1.9631   -1.2087 O   0  0  0  0  0  0  0  0  0  0  0  0
   -3.7176   -2.2125   -0.3574 O   0  0  0  0  0  0  0  0  0  0  0  0
   -2.1322    1.0526    0.3452 O   0  0  0  0  0  0  0  0  0  0  0  0
   -0.0471   -0.4396    1.0382 O   0  0  0  0  0  0  0  0  0  0  0  0
    1.2289   -0.1893    0.4387 C   0  0  0  0  0  0  0  0  0  0  0  0
    1.3003    1.2030    0.1427 O   0  0  0  0  0  0  0  0  0  0  0  0
    2.4907    1.5370   -0.6154 C   0  0  0  0  0  0  0  0  0  0  0  0
    2.7203    3.0367   -0.3991 C   0  0  0  0  0  0  0  0  0  0  0  0
    1.5809    3.7752   -0.8381 O   0  0  0  0  0  0  0  0  0  0  0  0
    3.7294    0.7235   -0.1907 C   0  0  0  0  0  0  0  0  0  0  0  0
    3.5953    0.2492    1.2598 C   0  0  0  0  0  0  0  0  0  0  0  0
    2.3118   -0.5722    1.4710 C   0  0  0  0  0  0  0  0  0  0  0  0
    2.6350   -1.9790    1.4101 O   0  0  0  0  0  0  0  0  0  0  0  0
    4.7487   -0.5333    1.6076 O   0  0  0  0  0  0  0  0  0  0  0  0
    3.8407   -0.4307   -1.0418 O   0  0  0  0  0  0  0  0  0  0  0  0
    0.2945   -4.0476    0.2622 H   0  0  0  0  0  0  0  0  0  0  0  0
   -1.3544   -2.8301    1.3414 H   0  0  0  0  0  0  0  0  0  0  0  0
   -1.5429   -3.0935   -0.4174 H   0  0  0  0  0  0  0  0  0  0  0  0
   -0.7157   -0.8067   -0.9029 H   0  0  0  0  0  0  0  0  0  0  0  0
   -2.6084   -0.5660    1.5002 H   0  0  0  0  0  0  0  0  0  0  0  0
   -3.3052   -0.5649   -1.5110 H   0  0  0  0  0  0  0  0  0  0  0  0
   -4.7487    1.8904    0.7295 H   0  0  0  0  0  0  0  0  0  0  0  0
   -5.9572    1.6392   -0.5460 H   0  0  0  0  0  0  0  0  0  0  0  0
   -3.1736    1.9794   -0.7911 H   0  0  0  0  0  0  0  0  0  0  0  0
   -4.6838   -2.3425   -0.2347 H   0  0  0  0  0  0  0  0  0  0  0  0
   -1.2606    1.2003    0.7779 H   0  0  0  0  0  0  0  0  0  0  0  0
    1.3467   -0.7759   -0.4815 H   0  0  0  0  0  0  0  0  0  0  0  0
    2.2478    1.3565   -1.6694 H   0  0  0  0  0  0  0  0  0  0  0  0
    2.8651    3.2635    0.6627 H   0  0  0  0  0  0  0  0  0  0  0  0
    3.5910    3.3914   -0.9582 H   0  0  0  0  0  0  0  0  0  0  0  0
    0.8019    3.2956   -0.4951 H   0  0  0  0  0  0  0  0  0  0  0  0
    4.6554    1.2886   -0.3410 H   0  0  0  0  0  0  0  0  0  0  0  0
    3.5783    1.1266    1.9161 H   0  0  0  0  0  0  0  0  0  0  0  0
    1.9483   -0.3997    2.4909 H   0  0  0  0  0  0  0  0  0  0  0  0
    1.8152   -2.4363    1.1114 H   0  0  0  0  0  0  0  0  0  0  0  0
    4.4027   -1.4418    1.7520 H   0  0  0  0  0  0  0  0  0  0  0  0
    4.5468   -0.9800   -0.6443 H   0  0  0  0  0  0  0  0  0  0  0  0
  1  2  1  0
  2  3  1  0
  3  4  1  0
  4  5  1  0
  5  6  1  0
  6  7  2  0
  6  8  1  0
  8  9  1  0
  5 10  1  0
  4 11  1  0
  3 12  1  0
 12 13  1  0
 13 14  1  0
 14 15  1  0
 15 16  1  0
 16 17  1  0
 15 18  1  0
 18 19  1  0
 19 20  1  0
 20 21  1  0
 19 22  1  0
 18 23  1  0
 20 13  1  0
  1 24  1  0
  2 25  1  0
  2 26  1  0
  3 27  1  0
  4 28  1  0
  5 29  1  0
  8 30  1  0
  8 31  1  0
  9 32  1  0
 10 33  1  0
 11 34  1  0
 13 35  1  0
 15 36  1  0
 16 37  1  0
 16 38  1  0
 17 39  1  0
 18 40  1  0
 19 41  1  0
 20 42  1  0
 21 43  1  0
 22 44  1  0
 23 45  1  0
M  END
