
     RDKit          3D

 42 44  0  0  0  0  0  0  0  0999 V2000
    4.8261   -3.6996   -3.7864 N   0  0  0  0  0  0  0  0  0  0  0  0
    4.2842   -3.1585   -2.9137 C   0  0  0  0  0  0  0  0  0  0  0  0
    3.6146   -2.4929   -1.8346 C   0  0  0  0  0  0  0  0  0  0  0  0
    2.8438   -1.3530   -2.0783 C   0  0  0  0  0  0  0  0  0  0  0  0
    2.1843   -0.7100   -1.0224 C   0  0  0  0  0  0  0  0  0  0  0  0
    2.2998   -1.1799    0.2932 C   0  0  0  0  0  0  0  0  0  0  0  0
    3.0575   -2.3397    0.5188 C   0  0  0  0  0  0  0  0  0  0  0  0
    3.7194   -2.9871   -0.5316 C   0  0  0  0  0  0  0  0  0  0  0  0
    1.6070   -0.5991    1.3847 N   0  0  0  0  0  0  0  0  0  0  0  0
    0.9413    0.5958    1.3058 C   0  0  0  0  0  0  0  0  0  0  0  0
   -0.2452    0.8256    0.8618 N   0  0  0  0  0  0  0  0  0  0  0  0
   -1.0335   -0.3287    0.4116 C   0  0  0  0  0  0  0  0  0  0  0  0
   -2.5117   -0.0293    0.3819 C   0  0  0  0  0  0  0  0  0  0  0  0
   -3.1203    0.8058    1.3370 C   0  0  0  0  0  0  0  0  0  0  0  0
   -4.5049    1.0518    1.3151 C   0  0  0  0  0  0  0  0  0  0  0  0
   -5.3126    0.4575    0.3442 C   0  0  0  0  0  0  0  0  0  0  0  0
   -4.7051   -0.3742   -0.5719 C   0  0  0  0  0  0  0  0  0  0  0  0
   -3.3489   -0.6167   -0.5531 C   0  0  0  0  0  0  0  0  0  0  0  0
   -2.9731   -1.4789   -1.5405 O   0  0  0  0  0  0  0  0  0  0  0  0
   -4.2373   -1.7319   -2.1848 C   0  0  0  0  0  0  0  0  0  0  0  0
   -5.3431   -1.0409   -1.5727 O   0  0  0  0  0  0  0  0  0  0  0  0
    1.7052    1.6009    1.8287 N   0  0  0  0  0  0  0  0  0  0  0  0
    1.2858    2.9992    1.7045 C   0  0  0  0  0  0  0  0  0  0  0  0
    2.4197    3.9169    2.1247 C   0  0  0  0  0  0  0  0  0  0  0  0
    3.5787    3.5843    2.3346 O   0  0  0  0  0  0  0  0  0  0  0  0
    2.0486    5.2088    2.2276 O   0  0  0  0  0  0  0  0  0  0  0  0
    2.7376   -0.9616   -3.0890 H   0  0  0  0  0  0  0  0  0  0  0  0
    1.5778    0.1660   -1.2476 H   0  0  0  0  0  0  0  0  0  0  0  0
    3.1285   -2.7591    1.5211 H   0  0  0  0  0  0  0  0  0  0  0  0
    4.3050   -3.8814   -0.3243 H   0  0  0  0  0  0  0  0  0  0  0  0
    2.1617   -0.6748    2.2300 H   0  0  0  0  0  0  0  0  0  0  0  0
   -0.7068   -0.5971   -0.5982 H   0  0  0  0  0  0  0  0  0  0  0  0
   -0.8897   -1.1984    1.0660 H   0  0  0  0  0  0  0  0  0  0  0  0
   -2.5073    1.2770    2.1061 H   0  0  0  0  0  0  0  0  0  0  0  0
   -4.9447    1.7090    2.0621 H   0  0  0  0  0  0  0  0  0  0  0  0
   -6.3799    0.6391    0.3111 H   0  0  0  0  0  0  0  0  0  0  0  0
   -4.4370   -2.8099   -2.1546 H   0  0  0  0  0  0  0  0  0  0  0  0
   -4.1658   -1.4178   -3.2332 H   0  0  0  0  0  0  0  0  0  0  0  0
    2.7101    1.4893    1.7071 H   0  0  0  0  0  0  0  0  0  0  0  0
    1.0368    3.2341    0.6649 H   0  0  0  0  0  0  0  0  0  0  0  0
    0.4250    3.1814    2.3540 H   0  0  0  0  0  0  0  0  0  0  0  0
    2.8684    5.6779    2.4901 H   0  0  0  0  0  0  0  0  0  0  0  0
  1  2  3  0
  2  3  1  0
  3  4  2  0
  4  5  1  0
  5  6  2  0
  6  7  1  0
  7  8  2  0
  6  9  1  0
  9 10  1  0
 10 11  2  3
 11 12  1  0
 12 13  1  0
 13 14  2  0
 14 15  1  0
 15 16  2  0
 16 17  1  0
 17 18  2  0
 18 19  1  0
 19 20  1  0
 20 21  1  0
 10 22  1  0
 22 23  1  0
 23 24  1  0
 24 25  2  0
 24 26  1  0
  8  3  1  0
 18 13  1  0
 21 17  1  0
  4 27  1  0
  5 28  1  0
  7 29  1  0
  8 30  1  0
  9 31  1  0
 12 32  1  0
 12 33  1  0
 14 34  1  0
 15 35  1  0
 16 36  1  0
 20 37  1  0
 20 38  1  0
 22 39  1  0
 23 40  1  0
 23 41  1  0
 26 42  1  0
M  END
