
     RDKit          3D

128133  0  0  0  0  0  0  0  0999 V2000
   -6.5066   -1.3018    3.5163 O   0  0  0  0  0  0  0  0  0  0  0  0
   -7.6831   -0.4923    3.6107 C   0  0  0  0  0  0  0  0  0  0  0  0
   -8.1557   -0.0860    2.2093 C   0  0  0  0  0  0  0  0  0  0  0  0
   -7.2431    0.9165    1.7107 O   0  0  0  0  0  0  0  0  0  0  0  0
   -7.5791    1.3952    0.4158 C   0  0  0  0  0  0  0  0  0  0  0  0
   -7.5388    0.3552   -0.5666 O   0  0  0  0  0  0  0  0  0  0  0  0
   -6.2230    0.1176   -1.1235 C   0  0  0  0  0  0  0  0  0  0  0  0
   -6.4354   -0.0220   -2.6671 C   0  0  0  0  0  0  0  0  0  0  0  0
   -7.2254    1.1094   -3.1069 O   0  0  0  0  0  0  0  0  0  0  0  0
   -7.2390   -1.2674   -3.0515 C   0  0  0  0  0  0  0  0  0  0  0  0
   -5.1394    0.0300   -3.4775 C   0  0  0  0  0  0  0  0  0  0  0  0
   -5.6370   -1.0914   -0.3710 C   0  0  0  0  0  0  0  0  0  0  0  0
   -4.1650   -1.4489   -0.5915 C   0  0  0  0  0  0  0  0  0  0  0  0
   -3.1282   -0.3006   -0.4523 C   0  0  0  0  0  0  0  0  0  0  0  0
   -1.6842   -0.8671   -0.6340 C   0  0  0  0  0  0  0  0  0  0  0  0
   -1.5104   -1.5942   -2.0085 C   0  0  0  0  0  0  0  0  0  0  0  0
   -0.0530   -1.3833   -2.4687 C   0  0  0  0  0  0  0  0  0  0  0  0
    0.6712   -0.8555   -1.2159 C   0  0  0  0  0  0  0  0  0  0  0  0
   -0.4455    0.0876   -0.6169 C   0  0  0  0  0  0  0  0  0  0  0  0
   -0.7992    1.3225   -1.5085 C   0  0  0  0  0  0  0  0  0  0  0  0
    0.0655    0.5768    0.7529 C   0  0  0  0  0  0  0  0  0  0  0  0
    1.3888    1.3769    0.6547 C   0  0  0  0  0  0  0  0  0  0  0  0
    1.0798    2.7011    0.2051 O   0  0  0  0  0  0  0  0  0  0  0  0
    2.5375    0.7446   -0.2286 C   0  0  0  0  0  0  0  0  0  0  0  0
    1.9681   -0.0247   -1.4889 C   0  0  0  0  0  0  0  0  0  0  0  0
    3.0830   -0.7915   -2.2264 C   0  0  0  0  0  0  0  0  0  0  0  0
    4.0468   -1.5143   -1.3441 C   0  0  0  0  0  0  0  0  0  0  0  0
    4.1969   -1.3118   -0.0216 C   0  0  0  0  0  0  0  0  0  0  0  0
    3.4193   -0.2047    0.7022 C   0  0  0  0  0  0  0  0  0  0  0  0
    4.3844    0.5978    1.6114 C   0  0  0  0  0  0  0  0  0  0  0  0
    5.1984   -0.2788    2.5559 C   0  0  0  0  0  0  0  0  0  0  0  0
    6.0159   -1.3190    1.7850 C   0  0  0  0  0  0  0  0  0  0  0  0
    5.1088   -2.2018    0.8648 C   0  0  0  0  0  0  0  0  0  0  0  0
    6.0318   -3.1548    0.0579 C   0  0  0  0  0  0  0  0  0  0  0  0
    4.2051   -3.1153    1.7292 C   0  0  0  0  0  0  0  0  0  0  0  0
    7.0242   -0.6995    0.9667 O   0  0  0  0  0  0  0  0  0  0  0  0
    8.1291   -0.1491    1.6792 C   0  0  0  0  0  0  0  0  0  0  0  0
    7.9634    1.2492    1.9028 O   0  0  0  0  0  0  0  0  0  0  0  0
    7.9110    2.0259    0.6896 C   0  0  0  0  0  0  0  0  0  0  0  0
    7.7084    3.5038    1.0663 C   0  0  0  0  0  0  0  0  0  0  0  0
    6.4590    3.7138    1.7297 O   0  0  0  0  0  0  0  0  0  0  0  0
    9.1907    1.8467   -0.1359 C   0  0  0  0  0  0  0  0  0  0  0  0
    9.4332    0.3632   -0.4075 C   0  0  0  0  0  0  0  0  0  0  0  0
    9.4378   -0.4202    0.9037 C   0  0  0  0  0  0  0  0  0  0  0  0
    9.6559   -1.8070    0.5974 O   0  0  0  0  0  0  0  0  0  0  0  0
   10.7003    0.2169   -1.0744 O   0  0  0  0  0  0  0  0  0  0  0  0
    9.1079    2.5435   -1.3826 O   0  0  0  0  0  0  0  0  0  0  0  0
    3.4335    1.8963   -0.7899 C   0  0  0  0  0  0  0  0  0  0  0  0
    0.9700   -2.1309   -0.3635 C   0  0  0  0  0  0  0  0  0  0  0  0
   -3.2894    0.4246    0.8878 C   0  0  0  0  0  0  0  0  0  0  0  0
   -8.9895    2.0066    0.3879 C   0  0  0  0  0  0  0  0  0  0  0  0
  -10.0130    0.9783    0.8773 C   0  0  0  0  0  0  0  0  0  0  0  0
   -9.6041    0.4292    2.2444 C   0  0  0  0  0  0  0  0  0  0  0  0
   -9.7458    1.4722    3.2210 O   0  0  0  0  0  0  0  0  0  0  0  0
  -11.3110    1.5918    0.9828 O   0  0  0  0  0  0  0  0  0  0  0  0
   -9.3469    2.4308   -0.9412 O   0  0  0  0  0  0  0  0  0  0  0  0
   -6.2202   -1.4792    4.4290 H   0  0  0  0  0  0  0  0  0  0  0  0
   -8.4462   -1.0856    4.1249 H   0  0  0  0  0  0  0  0  0  0  0  0
   -7.4337    0.3861    4.2145 H   0  0  0  0  0  0  0  0  0  0  0  0
   -8.0904   -0.9596    1.5497 H   0  0  0  0  0  0  0  0  0  0  0  0
   -6.8755    2.1904    0.1443 H   0  0  0  0  0  0  0  0  0  0  0  0
   -5.6012    1.0036   -0.9546 H   0  0  0  0  0  0  0  0  0  0  0  0
   -6.7244    1.9196   -2.9073 H   0  0  0  0  0  0  0  0  0  0  0  0
   -8.1957   -1.3013   -2.5194 H   0  0  0  0  0  0  0  0  0  0  0  0
   -7.4837   -1.2555   -4.1203 H   0  0  0  0  0  0  0  0  0  0  0  0
   -6.6885   -2.1898   -2.8424 H   0  0  0  0  0  0  0  0  0  0  0  0
   -4.5310   -0.8658   -3.3576 H   0  0  0  0  0  0  0  0  0  0  0  0
   -5.3597    0.1394   -4.5468 H   0  0  0  0  0  0  0  0  0  0  0  0
   -4.5412    0.9058   -3.2040 H   0  0  0  0  0  0  0  0  0  0  0  0
   -5.7751   -0.9371    0.7049 H   0  0  0  0  0  0  0  0  0  0  0  0
   -6.2481   -1.9788   -0.5762 H   0  0  0  0  0  0  0  0  0  0  0  0
   -4.0759   -1.9268   -1.5711 H   0  0  0  0  0  0  0  0  0  0  0  0
   -3.9100   -2.2349    0.1333 H   0  0  0  0  0  0  0  0  0  0  0  0
   -3.3261    0.4234   -1.2481 H   0  0  0  0  0  0  0  0  0  0  0  0
   -1.5557   -1.6067    0.1676 H   0  0  0  0  0  0  0  0  0  0  0  0
   -2.1863   -1.1988   -2.7744 H   0  0  0  0  0  0  0  0  0  0  0  0
   -1.7308   -2.6624   -1.8985 H   0  0  0  0  0  0  0  0  0  0  0  0
   -0.0185   -0.6579   -3.2889 H   0  0  0  0  0  0  0  0  0  0  0  0
    0.3721   -2.3153   -2.8567 H   0  0  0  0  0  0  0  0  0  0  0  0
   -1.3010    1.0437   -2.4406 H   0  0  0  0  0  0  0  0  0  0  0  0
   -1.4766    2.0017   -0.9805 H   0  0  0  0  0  0  0  0  0  0  0  0
    0.0665    1.9161   -1.8044 H   0  0  0  0  0  0  0  0  0  0  0  0
    0.2012   -0.2654    1.4362 H   0  0  0  0  0  0  0  0  0  0  0  0
   -0.6807    1.2200    1.2262 H   0  0  0  0  0  0  0  0  0  0  0  0
    1.7537    1.5168    1.6783 H   0  0  0  0  0  0  0  0  0  0  0  0
    0.4773    3.1031    0.8542 H   0  0  0  0  0  0  0  0  0  0  0  0
    1.6689    0.7353   -2.2212 H   0  0  0  0  0  0  0  0  0  0  0  0
    3.6613   -0.0937   -2.8454 H   0  0  0  0  0  0  0  0  0  0  0  0
    2.6420   -1.5086   -2.9284 H   0  0  0  0  0  0  0  0  0  0  0  0
    4.6117   -2.2856   -1.8584 H   0  0  0  0  0  0  0  0  0  0  0  0
    2.7292   -0.7076    1.3875 H   0  0  0  0  0  0  0  0  0  0  0  0
    3.8314    1.3262    2.2149 H   0  0  0  0  0  0  0  0  0  0  0  0
    5.0894    1.1670    1.0008 H   0  0  0  0  0  0  0  0  0  0  0  0
    5.8570    0.3647    3.1496 H   0  0  0  0  0  0  0  0  0  0  0  0
    4.5283   -0.7714    3.2694 H   0  0  0  0  0  0  0  0  0  0  0  0
    6.5191   -1.9803    2.5043 H   0  0  0  0  0  0  0  0  0  0  0  0
    6.6522   -2.6141   -0.6662 H   0  0  0  0  0  0  0  0  0  0  0  0
    5.4536   -3.9084   -0.4909 H   0  0  0  0  0  0  0  0  0  0  0  0
    6.7085   -3.6987    0.7278 H   0  0  0  0  0  0  0  0  0  0  0  0
    3.5277   -2.5575    2.3830 H   0  0  0  0  0  0  0  0  0  0  0  0
    4.8087   -3.7670    2.3722 H   0  0  0  0  0  0  0  0  0  0  0  0
    3.5812   -3.7617    1.0989 H   0  0  0  0  0  0  0  0  0  0  0  0
    8.2194   -0.6353    2.6571 H   0  0  0  0  0  0  0  0  0  0  0  0
    7.0410    1.7104    0.1020 H   0  0  0  0  0  0  0  0  0  0  0  0
    8.4928    3.8338    1.7557 H   0  0  0  0  0  0  0  0  0  0  0  0
    7.7250    4.1495    0.1829 H   0  0  0  0  0  0  0  0  0  0  0  0
    5.7667    3.3384    1.1603 H   0  0  0  0  0  0  0  0  0  0  0  0
   10.0519    2.2609    0.4049 H   0  0  0  0  0  0  0  0  0  0  0  0
    8.6860   -0.0338   -1.1048 H   0  0  0  0  0  0  0  0  0  0  0  0
   10.2938   -0.0956    1.5078 H   0  0  0  0  0  0  0  0  0  0  0  0
    9.3826   -2.3282    1.3722 H   0  0  0  0  0  0  0  0  0  0  0  0
   10.8614   -0.7481   -1.0888 H   0  0  0  0  0  0  0  0  0  0  0  0
    9.8648    2.2135   -1.9081 H   0  0  0  0  0  0  0  0  0  0  0  0
    3.7060    2.6149   -0.0092 H   0  0  0  0  0  0  0  0  0  0  0  0
    2.9132    2.4644   -1.5703 H   0  0  0  0  0  0  0  0  0  0  0  0
    4.3600    1.5169   -1.2321 H   0  0  0  0  0  0  0  0  0  0  0  0
    0.1071   -2.7992   -0.2699 H   0  0  0  0  0  0  0  0  0  0  0  0
    1.2826   -1.9125    0.6547 H   0  0  0  0  0  0  0  0  0  0  0  0
    1.7404   -2.7496   -0.8340 H   0  0  0  0  0  0  0  0  0  0  0  0
   -2.7252    1.3593    0.8983 H   0  0  0  0  0  0  0  0  0  0  0  0
   -2.9538   -0.1982    1.7227 H   0  0  0  0  0  0  0  0  0  0  0  0
   -4.3254    0.7146    1.0807 H   0  0  0  0  0  0  0  0  0  0  0  0
   -9.0284    2.8968    1.0258 H   0  0  0  0  0  0  0  0  0  0  0  0
  -10.1113    0.1613    0.1515 H   0  0  0  0  0  0  0  0  0  0  0  0
  -10.2870   -0.3733    2.5466 H   0  0  0  0  0  0  0  0  0  0  0  0
  -10.6810    1.7594    3.1530 H   0  0  0  0  0  0  0  0  0  0  0  0
  -11.3599    2.2185    0.2290 H   0  0  0  0  0  0  0  0  0  0  0  0
   -9.1222    1.6836   -1.5365 H   0  0  0  0  0  0  0  0  0  0  0  0
  1  2  1  0
  2  3  1  0
  3  4  1  0
  4  5  1  0
  5  6  1  0
  6  7  1  0
  7  8  1  0
  8  9  1  0
  8 10  1  0
  8 11  1  0
  7 12  1  0
 12 13  1  0
 13 14  1  0
 14 15  1  0
 15 16  1  0
 16 17  1  0
 17 18  1  0
 18 19  1  0
 19 20  1  0
 19 21  1  0
 21 22  1  0
 22 23  1  0
 22 24  1  0
 24 25  1  0
 25 26  1  0
 26 27  1  0
 27 28  2  0
 28 29  1  0
 29 30  1  0
 30 31  1  0
 31 32  1  0
 32 33  1  0
 33 34  1  0
 33 35  1  0
 32 36  1  0
 36 37  1  0
 37 38  1  0
 38 39  1  0
 39 40  1  0
 40 41  1  0
 39 42  1  0
 42 43  1  0
 43 44  1  0
 44 45  1  0
 43 46  1  0
 42 47  1  0
 24 48  1  0
 18 49  1  0
 14 50  1  0
  5 51  1  0
 51 52  1  0
 52 53  1  0
 53 54  1  0
 52 55  1  0
 51 56  1  0
 53  3  1  0
 19 15  1  0
 29 24  1  0
 44 37  1  0
 25 18  1  0
 33 28  1  0
  1 57  1  0
  2 58  1  0
  2 59  1  0
  3 60  1  0
  5 61  1  0
  7 62  1  0
  9 63  1  0
 10 64  1  0
 10 65  1  0
 10 66  1  0
 11 67  1  0
 11 68  1  0
 11 69  1  0
 12 70  1  0
 12 71  1  0
 13 72  1  0
 13 73  1  0
 14 74  1  0
 15 75  1  0
 16 76  1  0
 16 77  1  0
 17 78  1  0
 17 79  1  0
 20 80  1  0
 20 81  1  0
 20 82  1  0
 21 83  1  0
 21 84  1  0
 22 85  1  0
 23 86  1  0
 25 87  1  0
 26 88  1  0
 26 89  1  0
 27 90  1  0
 29 91  1  0
 30 92  1  0
 30 93  1  0
 31 94  1  0
 31 95  1  0
 32 96  1  0
 34 97  1  0
 34 98  1  0
 34 99  1  0
 35100  1  0
 35101  1  0
 35102  1  0
 37103  1  0
 39104  1  0
 40105  1  0
 40106  1  0
 41107  1  0
 42108  1  0
 43109  1  0
 44110  1  0
 45111  1  0
 46112  1  0
 47113  1  0
 48114  1  0
 48115  1  0
 48116  1  0
 49117  1  0
 49118  1  0
 49119  1  0
 50120  1  0
 50121  1  0
 50122  1  0
 51123  1  0
 52124  1  0
 53125  1  0
 54126  1  0
 55127  1  0
 56128  1  0
M  END
