
     RDKit          3D

170177  0  0  0  0  0  0  0  0999 V2000
   -8.5560    1.0338   -6.1128 O   0  0  0  0  0  0  0  0  0  0  0  0
   -8.3265    0.2258   -4.9593 C   0  0  0  0  0  0  0  0  0  0  0  0
   -8.6438    0.9858   -3.6560 C   0  0  0  0  0  0  0  0  0  0  0  0
   -8.0387    0.3596   -2.5194 O   0  0  0  0  0  0  0  0  0  0  0  0
   -8.7136   -0.8098   -2.0617 C   0  0  0  0  0  0  0  0  0  0  0  0
   -8.0168   -1.3612   -0.9441 O   0  0  0  0  0  0  0  0  0  0  0  0
   -6.9156   -2.2131   -1.3070 C   0  0  0  0  0  0  0  0  0  0  0  0
   -6.9135   -3.4448   -0.3404 C   0  0  0  0  0  0  0  0  0  0  0  0
   -8.1721   -4.1293   -0.5468 O   0  0  0  0  0  0  0  0  0  0  0  0
   -5.8121   -4.4519   -0.6848 C   0  0  0  0  0  0  0  0  0  0  0  0
   -6.8466   -3.0801    1.1437 C   0  0  0  0  0  0  0  0  0  0  0  0
   -5.6072   -1.4043   -1.4084 C   0  0  0  0  0  0  0  0  0  0  0  0
   -5.3955   -0.2982   -0.3610 C   0  0  0  0  0  0  0  0  0  0  0  0
   -3.9889    0.3667   -0.5133 C   0  0  0  0  0  0  0  0  0  0  0  0
   -3.0203    0.0018    0.6624 C   0  0  0  0  0  0  0  0  0  0  0  0
   -2.9778   -1.5143    0.9415 C   0  0  0  0  0  0  0  0  0  0  0  0
   -1.6217   -1.8492    1.5515 C   0  0  0  0  0  0  0  0  0  0  0  0
   -0.8314   -0.5323    1.6655 C   0  0  0  0  0  0  0  0  0  0  0  0
   -1.5020    0.4038    0.5713 C   0  0  0  0  0  0  0  0  0  0  0  0
   -1.2761    1.8948    0.9090 C   0  0  0  0  0  0  0  0  0  0  0  0
   -0.9340    0.1265   -0.8391 C   0  0  0  0  0  0  0  0  0  0  0  0
    0.5986    0.1523   -0.8978 C   0  0  0  0  0  0  0  0  0  0  0  0
    1.0153   -0.0409   -2.2478 O   0  0  0  0  0  0  0  0  0  0  0  0
    1.2486   -0.9174    0.0152 C   0  0  0  0  0  0  0  0  0  0  0  0
    0.7236   -0.7105    1.4787 C   0  0  0  0  0  0  0  0  0  0  0  0
    1.3261   -1.7710    2.4319 C   0  0  0  0  0  0  0  0  0  0  0  0
    2.7762   -2.0622    2.1939 C   0  0  0  0  0  0  0  0  0  0  0  0
    3.4907   -1.6296    1.1364 C   0  0  0  0  0  0  0  0  0  0  0  0
    2.8343   -0.8022    0.0218 C   0  0  0  0  0  0  0  0  0  0  0  0
    3.4348    0.6157    0.1060 C   0  0  0  0  0  0  0  0  0  0  0  0
    4.9685    0.5847    0.0041 C   0  0  0  0  0  0  0  0  0  0  0  0
    5.6194   -0.3528    1.0306 C   0  0  0  0  0  0  0  0  0  0  0  0
    5.0176   -1.7959    1.0051 C   0  0  0  0  0  0  0  0  0  0  0  0
    5.6608   -2.6006    2.1642 C   0  0  0  0  0  0  0  0  0  0  0  0
    5.3816   -2.5634   -0.2860 C   0  0  0  0  0  0  0  0  0  0  0  0
    7.0221   -0.4264    0.7728 O   0  0  0  0  0  0  0  0  0  0  0  0
    7.8169    0.5283    1.4755 C   0  0  0  0  0  0  0  0  0  0  0  0
    8.2272    1.5687    0.5784 O   0  0  0  0  0  0  0  0  0  0  0  0
    9.4456    1.3458   -0.1539 C   0  0  0  0  0  0  0  0  0  0  0  0
   10.5777    2.1885    0.4667 C   0  0  0  0  0  0  0  0  0  0  0  0
   11.7002    2.2638   -0.4159 O   0  0  0  0  0  0  0  0  0  0  0  0
   12.8320    2.8760    0.2204 C   0  0  0  0  0  0  0  0  0  0  0  0
   13.8205    1.8789    0.5071 O   0  0  0  0  0  0  0  0  0  0  0  0
   14.4763    1.2967   -0.6337 C   0  0  0  0  0  0  0  0  0  0  0  0
   13.7427    0.0274   -1.0845 C   0  0  0  0  0  0  0  0  0  0  0  0
   13.4978   -0.8235    0.0416 O   0  0  0  0  0  0  0  0  0  0  0  0
   14.6976    2.2668   -1.8009 C   0  0  0  0  0  0  0  0  0  0  0  0
   14.7273    3.6935   -1.2671 C   0  0  0  0  0  0  0  0  0  0  0  0
   13.3719    4.0383   -0.6514 C   0  0  0  0  0  0  0  0  0  0  0  0
   13.5311    5.2427    0.1243 O   0  0  0  0  0  0  0  0  0  0  0  0
   15.0080    4.6321   -2.3163 O   0  0  0  0  0  0  0  0  0  0  0  0
   15.9166    1.9872   -2.5027 O   0  0  0  0  0  0  0  0  0  0  0  0
    9.8276   -0.1467   -0.3120 C   0  0  0  0  0  0  0  0  0  0  0  0
    9.8416   -0.9033    1.0287 C   0  0  0  0  0  0  0  0  0  0  0  0
    9.0229   -0.1822    2.1129 C   0  0  0  0  0  0  0  0  0  0  0  0
    8.6362   -1.1073    3.1440 O   0  0  0  0  0  0  0  0  0  0  0  0
   11.1804   -1.0436    1.5343 O   0  0  0  0  0  0  0  0  0  0  0  0
    8.9198   -0.8189   -1.2002 O   0  0  0  0  0  0  0  0  0  0  0  0
    0.9406   -2.3398   -0.5592 C   0  0  0  0  0  0  0  0  0  0  0  0
   -1.0897    0.0102    3.1073 C   0  0  0  0  0  0  0  0  0  0  0  0
   -4.1808    1.8837   -0.6334 C   0  0  0  0  0  0  0  0  0  0  0  0
  -10.1574   -0.4680   -1.6170 C   0  0  0  0  0  0  0  0  0  0  0  0
  -10.9165    0.1212   -2.8022 C   0  0  0  0  0  0  0  0  0  0  0  0
  -10.1462    1.2885   -3.4405 C   0  0  0  0  0  0  0  0  0  0  0  0
  -10.7865    1.6564   -4.6746 O   0  0  0  0  0  0  0  0  0  0  0  0
  -11.1700   -0.8703   -3.8117 O   0  0  0  0  0  0  0  0  0  0  0  0
  -10.1700    0.5191   -0.5648 O   0  0  0  0  0  0  0  0  0  0  0  0
  -10.2901   -0.0675    0.7303 C   0  0  0  0  0  0  0  0  0  0  0  0
  -11.6623   -0.4009    0.9821 O   0  0  0  0  0  0  0  0  0  0  0  0
  -12.5074    0.7382    0.9561 C   0  0  0  0  0  0  0  0  0  0  0  0
  -13.8411    0.2982    1.1934 O   0  0  0  0  0  0  0  0  0  0  0  0
  -12.1234    1.7617    2.0322 C   0  0  0  0  0  0  0  0  0  0  0  0
  -10.6505    2.1449    1.8656 C   0  0  0  0  0  0  0  0  0  0  0  0
   -9.7416    0.9068    1.7830 C   0  0  0  0  0  0  0  0  0  0  0  0
   -9.5893    0.1954    3.1365 C   0  0  0  0  0  0  0  0  0  0  0  0
   -8.9093    1.0119    4.0828 O   0  0  0  0  0  0  0  0  0  0  0  0
  -10.2638    2.9932    2.9583 O   0  0  0  0  0  0  0  0  0  0  0  0
  -12.9274    2.9474    1.9507 O   0  0  0  0  0  0  0  0  0  0  0  0
   -9.3990    1.5083   -5.9620 H   0  0  0  0  0  0  0  0  0  0  0  0
   -7.2767   -0.0873   -4.9711 H   0  0  0  0  0  0  0  0  0  0  0  0
   -8.9253   -0.6821   -5.0566 H   0  0  0  0  0  0  0  0  0  0  0  0
   -8.1500    1.9608   -3.7618 H   0  0  0  0  0  0  0  0  0  0  0  0
   -8.7628   -1.5508   -2.8687 H   0  0  0  0  0  0  0  0  0  0  0  0
   -7.1041   -2.6355   -2.3030 H   0  0  0  0  0  0  0  0  0  0  0  0
   -8.2200   -4.8493    0.1050 H   0  0  0  0  0  0  0  0  0  0  0  0
   -5.9390   -5.3759   -0.1083 H   0  0  0  0  0  0  0  0  0  0  0  0
   -5.8674   -4.7441   -1.7396 H   0  0  0  0  0  0  0  0  0  0  0  0
   -4.8105   -4.0662   -0.4826 H   0  0  0  0  0  0  0  0  0  0  0  0
   -6.9871   -3.9706    1.7658 H   0  0  0  0  0  0  0  0  0  0  0  0
   -5.8831   -2.6465    1.4161 H   0  0  0  0  0  0  0  0  0  0  0  0
   -7.6436   -2.3873    1.4237 H   0  0  0  0  0  0  0  0  0  0  0  0
   -4.7501   -2.0781   -1.4452 H   0  0  0  0  0  0  0  0  0  0  0  0
   -5.6130   -0.9021   -2.3862 H   0  0  0  0  0  0  0  0  0  0  0  0
   -6.1804    0.4517   -0.5007 H   0  0  0  0  0  0  0  0  0  0  0  0
   -5.5337   -0.6734    0.6548 H   0  0  0  0  0  0  0  0  0  0  0  0
   -3.5461    0.0258   -1.4561 H   0  0  0  0  0  0  0  0  0  0  0  0
   -3.4446    0.4748    1.5608 H   0  0  0  0  0  0  0  0  0  0  0  0
   -3.1141   -2.1049    0.0289 H   0  0  0  0  0  0  0  0  0  0  0  0
   -3.7763   -1.7942    1.6368 H   0  0  0  0  0  0  0  0  0  0  0  0
   -1.1329   -2.5943    0.9249 H   0  0  0  0  0  0  0  0  0  0  0  0
   -1.7589   -2.3388    2.5228 H   0  0  0  0  0  0  0  0  0  0  0  0
   -1.4871    2.5471    0.0600 H   0  0  0  0  0  0  0  0  0  0  0  0
   -0.2392    2.0911    1.1948 H   0  0  0  0  0  0  0  0  0  0  0  0
   -1.9112    2.2254    1.7376 H   0  0  0  0  0  0  0  0  0  0  0  0
   -1.3077   -0.8236   -1.2366 H   0  0  0  0  0  0  0  0  0  0  0  0
   -1.3163    0.8725   -1.5478 H   0  0  0  0  0  0  0  0  0  0  0  0
    0.9300    1.1525   -0.6053 H   0  0  0  0  0  0  0  0  0  0  0  0
    0.6333    0.6792   -2.7790 H   0  0  0  0  0  0  0  0  0  0  0  0
    1.1534    0.2524    1.7969 H   0  0  0  0  0  0  0  0  0  0  0  0
    1.2411   -1.4083    3.4631 H   0  0  0  0  0  0  0  0  0  0  0  0
    0.7750   -2.7161    2.3851 H   0  0  0  0  0  0  0  0  0  0  0  0
    3.2472   -2.6337    2.9882 H   0  0  0  0  0  0  0  0  0  0  0  0
    3.1590   -1.2062   -0.9444 H   0  0  0  0  0  0  0  0  0  0  0  0
    3.1441    1.1070    1.0425 H   0  0  0  0  0  0  0  0  0  0  0  0
    3.0697    1.2424   -0.7143 H   0  0  0  0  0  0  0  0  0  0  0  0
    5.2637    0.2891   -1.0082 H   0  0  0  0  0  0  0  0  0  0  0  0
    5.3639    1.5994    0.1301 H   0  0  0  0  0  0  0  0  0  0  0  0
    5.4355    0.0571    2.0338 H   0  0  0  0  0  0  0  0  0  0  0  0
    6.7375   -2.7221    2.0140 H   0  0  0  0  0  0  0  0  0  0  0  0
    5.2368   -3.6083    2.2404 H   0  0  0  0  0  0  0  0  0  0  0  0
    5.5245   -2.0987    3.1274 H   0  0  0  0  0  0  0  0  0  0  0  0
    5.0945   -2.0416   -1.1993 H   0  0  0  0  0  0  0  0  0  0  0  0
    6.4605   -2.7358   -0.3537 H   0  0  0  0  0  0  0  0  0  0  0  0
    4.8978   -3.5450   -0.3029 H   0  0  0  0  0  0  0  0  0  0  0  0
    7.2347    1.0006    2.2773 H   0  0  0  0  0  0  0  0  0  0  0  0
    9.2570    1.7513   -1.1570 H   0  0  0  0  0  0  0  0  0  0  0  0
   10.8992    1.7719    1.4257 H   0  0  0  0  0  0  0  0  0  0  0  0
   10.2105    3.2032    0.6578 H   0  0  0  0  0  0  0  0  0  0  0  0
   12.5366    3.2902    1.1942 H   0  0  0  0  0  0  0  0  0  0  0  0
   15.4483    0.9669   -0.2471 H   0  0  0  0  0  0  0  0  0  0  0  0
   14.3398   -0.5335   -1.8123 H   0  0  0  0  0  0  0  0  0  0  0  0
   12.7779    0.2557   -1.5467 H   0  0  0  0  0  0  0  0  0  0  0  0
   13.3062   -0.2175    0.7938 H   0  0  0  0  0  0  0  0  0  0  0  0
   13.8959    2.1792   -2.5454 H   0  0  0  0  0  0  0  0  0  0  0  0
   15.5349    3.8160   -0.5361 H   0  0  0  0  0  0  0  0  0  0  0  0
   12.6428    4.2896   -1.4314 H   0  0  0  0  0  0  0  0  0  0  0  0
   13.9809    5.8673   -0.4759 H   0  0  0  0  0  0  0  0  0  0  0  0
   15.6229    4.1802   -2.9300 H   0  0  0  0  0  0  0  0  0  0  0  0
   16.6610    2.0468   -1.8719 H   0  0  0  0  0  0  0  0  0  0  0  0
   10.7993   -0.2211   -0.7964 H   0  0  0  0  0  0  0  0  0  0  0  0
    9.4614   -1.9245    0.8946 H   0  0  0  0  0  0  0  0  0  0  0  0
    9.6467    0.5609    2.6237 H   0  0  0  0  0  0  0  0  0  0  0  0
    9.4319   -1.6466    3.3262 H   0  0  0  0  0  0  0  0  0  0  0  0
   11.7063   -1.4994    0.8435 H   0  0  0  0  0  0  0  0  0  0  0  0
    8.2504   -0.1634   -1.4933 H   0  0  0  0  0  0  0  0  0  0  0  0
    1.1823   -3.1402    0.1428 H   0  0  0  0  0  0  0  0  0  0  0  0
   -0.1007   -2.4711   -0.8504 H   0  0  0  0  0  0  0  0  0  0  0  0
    1.5221   -2.5352   -1.4669 H   0  0  0  0  0  0  0  0  0  0  0  0
   -2.1468    0.2188    3.2911 H   0  0  0  0  0  0  0  0  0  0  0  0
   -0.7883   -0.7144    3.8703 H   0  0  0  0  0  0  0  0  0  0  0  0
   -0.5318    0.9317    3.2987 H   0  0  0  0  0  0  0  0  0  0  0  0
   -4.4389    2.3297    0.3339 H   0  0  0  0  0  0  0  0  0  0  0  0
   -4.9795    2.1291   -1.3443 H   0  0  0  0  0  0  0  0  0  0  0  0
   -3.2790    2.3707   -1.0099 H   0  0  0  0  0  0  0  0  0  0  0  0
  -10.6534   -1.3920   -1.2851 H   0  0  0  0  0  0  0  0  0  0  0  0
  -11.8980    0.4962   -2.4862 H   0  0  0  0  0  0  0  0  0  0  0  0
  -10.2122    2.1497   -2.7620 H   0  0  0  0  0  0  0  0  0  0  0  0
  -11.2368    0.8399   -4.9863 H   0  0  0  0  0  0  0  0  0  0  0  0
  -11.8653   -1.4602   -3.4620 H   0  0  0  0  0  0  0  0  0  0  0  0
   -9.7189   -1.0002    0.7809 H   0  0  0  0  0  0  0  0  0  0  0  0
  -12.5092    1.2002   -0.0383 H   0  0  0  0  0  0  0  0  0  0  0  0
  -13.7554   -0.3724    1.8915 H   0  0  0  0  0  0  0  0  0  0  0  0
  -12.2985    1.3469    3.0314 H   0  0  0  0  0  0  0  0  0  0  0  0
  -10.5310    2.7488    0.9575 H   0  0  0  0  0  0  0  0  0  0  0  0
   -8.7446    1.2560    1.4807 H   0  0  0  0  0  0  0  0  0  0  0  0
   -8.9954   -0.7162    3.0255 H   0  0  0  0  0  0  0  0  0  0  0  0
  -10.5580   -0.0886    3.5640 H   0  0  0  0  0  0  0  0  0  0  0  0
   -9.2301    1.9309    3.9427 H   0  0  0  0  0  0  0  0  0  0  0  0
  -10.9578    3.6844    2.9988 H   0  0  0  0  0  0  0  0  0  0  0  0
  -13.8500    2.6375    1.8450 H   0  0  0  0  0  0  0  0  0  0  0  0
  1  2  1  0
  2  3  1  0
  3  4  1  0
  4  5  1  0
  5  6  1  0
  6  7  1  0
  7  8  1  0
  8  9  1  0
  8 10  1  0
  8 11  1  0
  7 12  1  0
 12 13  1  0
 13 14  1  0
 14 15  1  0
 15 16  1  0
 16 17  1  0
 17 18  1  0
 18 19  1  0
 19 20  1  0
 19 21  1  0
 21 22  1  0
 22 23  1  0
 22 24  1  0
 24 25  1  0
 25 26  1  0
 26 27  1  0
 27 28  2  0
 28 29  1  0
 29 30  1  0
 30 31  1  0
 31 32  1  0
 32 33  1  0
 33 34  1  0
 33 35  1  0
 32 36  1  0
 36 37  1  0
 37 38  1  0
 38 39  1  0
 39 40  1  0
 40 41  1  0
 41 42  1  0
 42 43  1  0
 43 44  1  0
 44 45  1  0
 45 46  1  0
 44 47  1  0
 47 48  1  0
 48 49  1  0
 49 50  1  0
 48 51  1  0
 47 52  1  0
 39 53  1  0
 53 54  1  0
 54 55  1  0
 55 56  1  0
 54 57  1  0
 53 58  1  0
 24 59  1  0
 18 60  1  0
 14 61  1  0
  5 62  1  0
 62 63  1  0
 63 64  1  0
 64 65  1  0
 63 66  1  0
 62 67  1  0
 67 68  1  0
 68 69  1  0
 69 70  1  0
 70 71  1  0
 70 72  1  0
 72 73  1  0
 73 74  1  0
 74 75  1  0
 75 76  1  0
 73 77  1  0
 72 78  1  0
 64  3  1  0
 74 68  1  0
 19 15  1  0
 29 24  1  0
 55 37  1  0
 25 18  1  0
 33 28  1  0
 49 42  1  0
  1 79  1  0
  2 80  1  0
  2 81  1  0
  3 82  1  0
  5 83  1  0
  7 84  1  0
  9 85  1  0
 10 86  1  0
 10 87  1  0
 10 88  1  0
 11 89  1  0
 11 90  1  0
 11 91  1  0
 12 92  1  0
 12 93  1  0
 13 94  1  0
 13 95  1  0
 14 96  1  0
 15 97  1  0
 16 98  1  0
 16 99  1  0
 17100  1  0
 17101  1  0
 20102  1  0
 20103  1  0
 20104  1  0
 21105  1  0
 21106  1  0
 22107  1  0
 23108  1  0
 25109  1  0
 26110  1  0
 26111  1  0
 27112  1  0
 29113  1  0
 30114  1  0
 30115  1  0
 31116  1  0
 31117  1  0
 32118  1  0
 34119  1  0
 34120  1  0
 34121  1  0
 35122  1  0
 35123  1  0
 35124  1  0
 37125  1  0
 39126  1  0
 40127  1  0
 40128  1  0
 42129  1  0
 44130  1  0
 45131  1  0
 45132  1  0
 46133  1  0
 47134  1  0
 48135  1  0
 49136  1  0
 50137  1  0
 51138  1  0
 52139  1  0
 53140  1  0
 54141  1  0
 55142  1  0
 56143  1  0
 57144  1  0
 58145  1  0
 59146  1  0
 59147  1  0
 59148  1  0
 60149  1  0
 60150  1  0
 60151  1  0
 61152  1  0
 61153  1  0
 61154  1  0
 62155  1  0
 63156  1  0
 64157  1  0
 65158  1  0
 66159  1  0
 68160  1  0
 70161  1  0
 71162  1  0
 72163  1  0
 73164  1  0
 74165  1  0
 75166  1  0
 75167  1  0
 76168  1  0
 77169  1  0
 78170  1  0
M  END
