
     RDKit          3D

191199  0  0  0  0  0  0  0  0999 V2000
   -8.9094   -2.7837    2.3108 O   0  0  0  0  0  0  0  0  0  0  0  0
   -9.0301   -4.0367    1.6247 C   0  0  0  0  0  0  0  0  0  0  0  0
   -8.6696   -3.8730    0.1363 C   0  0  0  0  0  0  0  0  0  0  0  0
   -7.2572   -3.6122    0.0424 O   0  0  0  0  0  0  0  0  0  0  0  0
   -6.8085   -3.3364   -1.2800 C   0  0  0  0  0  0  0  0  0  0  0  0
   -7.4146   -2.1615   -1.8063 O   0  0  0  0  0  0  0  0  0  0  0  0
   -6.7689   -0.9084   -1.4605 C   0  0  0  0  0  0  0  0  0  0  0  0
   -6.6695   -0.6461    0.0779 C   0  0  0  0  0  0  0  0  0  0  0  0
   -6.9712    0.7009    0.4249 O   0  0  0  0  0  0  0  0  0  0  0  0
   -8.2732    1.1879    0.0434 C   0  0  0  0  0  0  0  0  0  0  0  0
   -8.7993    0.5267   -1.2483 C   0  0  0  0  0  0  0  0  0  0  0  0
   -7.6121    0.1772   -2.1532 C   0  0  0  0  0  0  0  0  0  0  0  0
   -6.8225    1.3187   -2.4895 O   0  0  0  0  0  0  0  0  0  0  0  0
   -9.5876   -0.6331   -0.9496 O   0  0  0  0  0  0  0  0  0  0  0  0
   -9.2302    1.1198    1.2508 C   0  0  0  0  0  0  0  0  0  0  0  0
  -10.0625    2.2774    1.4075 O   0  0  0  0  0  0  0  0  0  0  0  0
  -11.1389    2.3724    0.4685 C   0  0  0  0  0  0  0  0  0  0  0  0
  -10.7156    2.8110   -0.8132 O   0  0  0  0  0  0  0  0  0  0  0  0
  -10.1948    4.1514   -0.8234 C   0  0  0  0  0  0  0  0  0  0  0  0
   -9.6680    4.4375   -2.2406 C   0  0  0  0  0  0  0  0  0  0  0  0
   -8.5263    3.6202   -2.5498 O   0  0  0  0  0  0  0  0  0  0  0  0
  -11.2917    5.1531   -0.4157 C   0  0  0  0  0  0  0  0  0  0  0  0
  -11.8578    4.7888    0.9600 C   0  0  0  0  0  0  0  0  0  0  0  0
  -12.2280    3.2998    1.0502 C   0  0  0  0  0  0  0  0  0  0  0  0
  -12.4996    2.9689    2.4250 O   0  0  0  0  0  0  0  0  0  0  0  0
  -10.9200    5.1526    1.9782 O   0  0  0  0  0  0  0  0  0  0  0  0
  -12.3451    5.1567   -1.3873 O   0  0  0  0  0  0  0  0  0  0  0  0
   -5.3094   -0.9578    0.4597 O   0  0  0  0  0  0  0  0  0  0  0  0
   -5.0250   -0.7673    1.8593 C   0  0  0  0  0  0  0  0  0  0  0  0
   -4.1258   -1.9635    2.3245 C   0  0  0  0  0  0  0  0  0  0  0  0
   -2.9799   -2.0754    1.4676 O   0  0  0  0  0  0  0  0  0  0  0  0
   -3.6278   -1.8131    3.7637 C   0  0  0  0  0  0  0  0  0  0  0  0
   -4.8705   -3.2974    2.1925 C   0  0  0  0  0  0  0  0  0  0  0  0
   -4.4157    0.6410    2.1175 C   0  0  0  0  0  0  0  0  0  0  0  0
   -3.0400    0.9990    1.5071 C   0  0  0  0  0  0  0  0  0  0  0  0
   -2.9755    1.1708   -0.0245 C   0  0  0  0  0  0  0  0  0  0  0  0
   -1.5779    1.5116   -0.6307 C   0  0  0  0  0  0  0  0  0  0  0  0
   -0.8638    2.7305   -0.0460 C   0  0  0  0  0  0  0  0  0  0  0  0
    0.5114    2.7401   -0.7207 C   0  0  0  0  0  0  0  0  0  0  0  0
    0.7459    1.3234   -1.3537 C   0  0  0  0  0  0  0  0  0  0  0  0
   -0.4309    0.4371   -0.7427 C   0  0  0  0  0  0  0  0  0  0  0  0
   -0.9285   -0.6982   -1.6636 C   0  0  0  0  0  0  0  0  0  0  0  0
   -0.0482   -0.1785    0.6344 C   0  0  0  0  0  0  0  0  0  0  0  0
    1.3698   -0.7671    0.7589 C   0  0  0  0  0  0  0  0  0  0  0  0
    1.4395   -1.9684    0.0023 O   0  0  0  0  0  0  0  0  0  0  0  0
    2.4835    0.2560    0.3783 C   0  0  0  0  0  0  0  0  0  0  0  0
    2.2131    0.7776   -1.0739 C   0  0  0  0  0  0  0  0  0  0  0  0
    2.6266   -0.2743   -2.1500 C   0  0  0  0  0  0  0  0  0  0  0  0
    3.7660   -1.1914   -1.8509 C   0  0  0  0  0  0  0  0  0  0  0  0
    4.3721   -1.2859   -0.6588 C   0  0  0  0  0  0  0  0  0  0  0  0
    3.9380   -0.3834    0.4748 C   0  0  0  0  0  0  0  0  0  0  0  0
    5.0834    0.6595    0.6085 C   0  0  0  0  0  0  0  0  0  0  0  0
    6.4960    0.0942    0.3776 C   0  0  0  0  0  0  0  0  0  0  0  0
    6.5618   -1.4192    0.6490 C   0  0  0  0  0  0  0  0  0  0  0  0
    5.5985   -2.1772   -0.3517 C   0  0  0  0  0  0  0  0  0  0  0  0
    5.1224   -3.4861    0.3116 C   0  0  0  0  0  0  0  0  0  0  0  0
    6.3703   -2.5765   -1.6380 C   0  0  0  0  0  0  0  0  0  0  0  0
    7.8794   -1.9767    0.5603 O   0  0  0  0  0  0  0  0  0  0  0  0
    8.8867   -1.3192    1.3264 C   0  0  0  0  0  0  0  0  0  0  0  0
    9.4883   -0.2707    0.5596 O   0  0  0  0  0  0  0  0  0  0  0  0
   10.0605   -0.7365   -0.6827 C   0  0  0  0  0  0  0  0  0  0  0  0
   10.8091    0.4601   -1.2862 C   0  0  0  0  0  0  0  0  0  0  0  0
   11.9148    0.8069   -0.4370 O   0  0  0  0  0  0  0  0  0  0  0  0
   12.7654    1.7967   -1.0299 C   0  0  0  0  0  0  0  0  0  0  0  0
   13.0558    2.7304    0.0168 O   0  0  0  0  0  0  0  0  0  0  0  0
   14.4377    3.0433    0.1914 C   0  0  0  0  0  0  0  0  0  0  0  0
   14.5515    4.0823    1.3129 C   0  0  0  0  0  0  0  0  0  0  0  0
   15.9061    4.3986    1.6028 O   0  0  0  0  0  0  0  0  0  0  0  0
   15.2711    1.7733    0.4650 C   0  0  0  0  0  0  0  0  0  0  0  0
   14.8853    0.6149   -0.4716 C   0  0  0  0  0  0  0  0  0  0  0  0
   14.0179    1.1133   -1.6257 C   0  0  0  0  0  0  0  0  0  0  0  0
   13.6973    0.0215   -2.5010 O   0  0  0  0  0  0  0  0  0  0  0  0
   16.0601   -0.0111   -1.0170 O   0  0  0  0  0  0  0  0  0  0  0  0
   15.1179    1.3315    1.8224 O   0  0  0  0  0  0  0  0  0  0  0  0
   11.0145   -1.9371   -0.4730 C   0  0  0  0  0  0  0  0  0  0  0  0
   11.2855   -2.1610    1.0169 C   0  0  0  0  0  0  0  0  0  0  0  0
    9.9670   -2.3261    1.7946 C   0  0  0  0  0  0  0  0  0  0  0  0
   10.2578   -2.1451    3.1968 O   0  0  0  0  0  0  0  0  0  0  0  0
   12.0566   -1.0837    1.5909 O   0  0  0  0  0  0  0  0  0  0  0  0
   10.4246   -3.1167   -1.0345 O   0  0  0  0  0  0  0  0  0  0  0  0
    2.4423    1.3840    1.4490 C   0  0  0  0  0  0  0  0  0  0  0  0
    0.5777    1.5573   -2.8911 C   0  0  0  0  0  0  0  0  0  0  0  0
   -3.9554    2.2780   -0.4646 C   0  0  0  0  0  0  0  0  0  0  0  0
   -7.1044   -4.5511   -2.1972 C   0  0  0  0  0  0  0  0  0  0  0  0
   -8.5755   -4.9777   -2.1185 C   0  0  0  0  0  0  0  0  0  0  0  0
   -9.0425   -5.1227   -0.6703 C   0  0  0  0  0  0  0  0  0  0  0  0
  -10.4582   -5.3267   -0.6555 O   0  0  0  0  0  0  0  0  0  0  0  0
   -9.4260   -4.0202   -2.7848 O   0  0  0  0  0  0  0  0  0  0  0  0
   -6.7926   -4.2945   -3.5745 O   0  0  0  0  0  0  0  0  0  0  0  0
   -9.5799   -2.1926    1.9263 H   0  0  0  0  0  0  0  0  0  0  0  0
  -10.0563   -4.3903    1.7617 H   0  0  0  0  0  0  0  0  0  0  0  0
   -8.3447   -4.7359    2.1130 H   0  0  0  0  0  0  0  0  0  0  0  0
   -9.2199   -3.0014   -0.2329 H   0  0  0  0  0  0  0  0  0  0  0  0
   -5.7212   -3.1970   -1.2587 H   0  0  0  0  0  0  0  0  0  0  0  0
   -5.7642   -0.9261   -1.9077 H   0  0  0  0  0  0  0  0  0  0  0  0
   -7.3448   -1.2934    0.6456 H   0  0  0  0  0  0  0  0  0  0  0  0
   -8.0877    2.2433   -0.1749 H   0  0  0  0  0  0  0  0  0  0  0  0
   -9.4550    1.2057   -1.7925 H   0  0  0  0  0  0  0  0  0  0  0  0
   -7.9975   -0.2208   -3.1002 H   0  0  0  0  0  0  0  0  0  0  0  0
   -7.3951    2.1189   -2.4523 H   0  0  0  0  0  0  0  0  0  0  0  0
   -9.5381   -1.2329   -1.7204 H   0  0  0  0  0  0  0  0  0  0  0  0
   -9.8458    0.2165    1.2649 H   0  0  0  0  0  0  0  0  0  0  0  0
   -8.6310    1.0720    2.1673 H   0  0  0  0  0  0  0  0  0  0  0  0
  -11.5801    1.3738    0.3531 H   0  0  0  0  0  0  0  0  0  0  0  0
   -9.3522    4.2031   -0.1241 H   0  0  0  0  0  0  0  0  0  0  0  0
   -9.3572    5.4826   -2.3307 H   0  0  0  0  0  0  0  0  0  0  0  0
  -10.4299    4.2159   -2.9965 H   0  0  0  0  0  0  0  0  0  0  0  0
   -8.1965    3.9619   -3.4052 H   0  0  0  0  0  0  0  0  0  0  0  0
  -10.8600    6.1609   -0.3921 H   0  0  0  0  0  0  0  0  0  0  0  0
  -12.7616    5.3777    1.1580 H   0  0  0  0  0  0  0  0  0  0  0  0
  -13.1498    3.1462    0.4771 H   0  0  0  0  0  0  0  0  0  0  0  0
  -11.6518    2.6225    2.7752 H   0  0  0  0  0  0  0  0  0  0  0  0
  -11.3118    4.8448    2.8186 H   0  0  0  0  0  0  0  0  0  0  0  0
  -12.9721    5.8601   -1.1383 H   0  0  0  0  0  0  0  0  0  0  0  0
   -5.9622   -0.8256    2.4308 H   0  0  0  0  0  0  0  0  0  0  0  0
   -3.3121   -1.8555    0.5742 H   0  0  0  0  0  0  0  0  0  0  0  0
   -4.4593   -1.7095    4.4675 H   0  0  0  0  0  0  0  0  0  0  0  0
   -3.0298   -2.6829    4.0597 H   0  0  0  0  0  0  0  0  0  0  0  0
   -2.9632   -0.9511    3.8719 H   0  0  0  0  0  0  0  0  0  0  0  0
   -5.0320   -3.5491    1.1417 H   0  0  0  0  0  0  0  0  0  0  0  0
   -4.2704   -4.1209    2.5996 H   0  0  0  0  0  0  0  0  0  0  0  0
   -5.8318   -3.2820    2.7150 H   0  0  0  0  0  0  0  0  0  0  0  0
   -4.3264    0.7664    3.2041 H   0  0  0  0  0  0  0  0  0  0  0  0
   -5.1348    1.4067    1.8188 H   0  0  0  0  0  0  0  0  0  0  0  0
   -2.7328    1.9443    1.9715 H   0  0  0  0  0  0  0  0  0  0  0  0
   -2.3154    0.2634    1.8481 H   0  0  0  0  0  0  0  0  0  0  0  0
   -3.3128    0.2422   -0.4961 H   0  0  0  0  0  0  0  0  0  0  0  0
   -1.8167    1.7793   -1.6698 H   0  0  0  0  0  0  0  0  0  0  0  0
   -1.4035    3.6614   -0.2511 H   0  0  0  0  0  0  0  0  0  0  0  0
   -0.7459    2.6576    1.0399 H   0  0  0  0  0  0  0  0  0  0  0  0
    1.2838    3.0550   -0.0201 H   0  0  0  0  0  0  0  0  0  0  0  0
    0.5179    3.5226   -1.4912 H   0  0  0  0  0  0  0  0  0  0  0  0
   -0.1479   -1.4171   -1.9093 H   0  0  0  0  0  0  0  0  0  0  0  0
   -1.3386   -0.3166   -2.6038 H   0  0  0  0  0  0  0  0  0  0  0  0
   -1.7331   -1.2680   -1.1856 H   0  0  0  0  0  0  0  0  0  0  0  0
   -0.7570   -0.9813    0.8664 H   0  0  0  0  0  0  0  0  0  0  0  0
   -0.1795    0.5568    1.4303 H   0  0  0  0  0  0  0  0  0  0  0  0
    1.5186   -1.0679    1.8044 H   0  0  0  0  0  0  0  0  0  0  0  0
    0.7575   -2.5707    0.3457 H   0  0  0  0  0  0  0  0  0  0  0  0
    2.8912    1.6299   -1.2305 H   0  0  0  0  0  0  0  0  0  0  0  0
    1.7852   -0.9183   -2.4101 H   0  0  0  0  0  0  0  0  0  0  0  0
    2.8960    0.2647   -3.0678 H   0  0  0  0  0  0  0  0  0  0  0  0
    4.0717   -1.8179   -2.6818 H   0  0  0  0  0  0  0  0  0  0  0  0
    3.9370   -0.9830    1.3950 H   0  0  0  0  0  0  0  0  0  0  0  0
    4.9391    1.4980   -0.0825 H   0  0  0  0  0  0  0  0  0  0  0  0
    5.0623    1.0796    1.6213 H   0  0  0  0  0  0  0  0  0  0  0  0
    7.1923    0.6548    1.0099 H   0  0  0  0  0  0  0  0  0  0  0  0
    6.8171    0.2933   -0.6534 H   0  0  0  0  0  0  0  0  0  0  0  0
    6.2206   -1.5947    1.6803 H   0  0  0  0  0  0  0  0  0  0  0  0
    5.9727   -4.1265    0.5744 H   0  0  0  0  0  0  0  0  0  0  0  0
    4.5580   -3.2946    1.2305 H   0  0  0  0  0  0  0  0  0  0  0  0
    4.4707   -4.0575   -0.3585 H   0  0  0  0  0  0  0  0  0  0  0  0
    5.7478   -3.1685   -2.3194 H   0  0  0  0  0  0  0  0  0  0  0  0
    7.2406   -3.2034   -1.4134 H   0  0  0  0  0  0  0  0  0  0  0  0
    6.7260   -1.6947   -2.1821 H   0  0  0  0  0  0  0  0  0  0  0  0
    8.4352   -0.8642    2.2159 H   0  0  0  0  0  0  0  0  0  0  0  0
    9.2403   -0.9973   -1.3623 H   0  0  0  0  0  0  0  0  0  0  0  0
   10.1403    1.3271   -1.3448 H   0  0  0  0  0  0  0  0  0  0  0  0
   11.1612    0.2088   -2.2933 H   0  0  0  0  0  0  0  0  0  0  0  0
   12.2258    2.3400   -1.8147 H   0  0  0  0  0  0  0  0  0  0  0  0
   14.8055    3.5124   -0.7299 H   0  0  0  0  0  0  0  0  0  0  0  0
   14.0520    3.7476    2.2287 H   0  0  0  0  0  0  0  0  0  0  0  0
   14.0441    5.0055    1.0080 H   0  0  0  0  0  0  0  0  0  0  0  0
   16.2340    3.7045    2.2078 H   0  0  0  0  0  0  0  0  0  0  0  0
   16.3350    2.0136    0.3526 H   0  0  0  0  0  0  0  0  0  0  0  0
   14.3595   -0.1817    0.0688 H   0  0  0  0  0  0  0  0  0  0  0  0
   14.5879    1.8296   -2.2305 H   0  0  0  0  0  0  0  0  0  0  0  0
   14.5422   -0.4582   -2.6202 H   0  0  0  0  0  0  0  0  0  0  0  0
   16.5823   -0.3212   -0.2522 H   0  0  0  0  0  0  0  0  0  0  0  0
   14.1752    1.1050    1.9553 H   0  0  0  0  0  0  0  0  0  0  0  0
   11.9530   -1.7772   -1.0154 H   0  0  0  0  0  0  0  0  0  0  0  0
   11.8847   -3.0676    1.1620 H   0  0  0  0  0  0  0  0  0  0  0  0
    9.5839   -3.3467    1.6859 H   0  0  0  0  0  0  0  0  0  0  0  0
   11.0336   -1.5450    3.2238 H   0  0  0  0  0  0  0  0  0  0  0  0
   11.7333   -0.2514    1.1771 H   0  0  0  0  0  0  0  0  0  0  0  0
   11.1106   -3.8052   -1.0637 H   0  0  0  0  0  0  0  0  0  0  0  0
    2.8043    1.0115    2.4138 H   0  0  0  0  0  0  0  0  0  0  0  0
    3.0668    2.2380    1.1669 H   0  0  0  0  0  0  0  0  0  0  0  0
    1.4464    1.7759    1.6473 H   0  0  0  0  0  0  0  0  0  0  0  0
   -0.3450    2.0926   -3.1384 H   0  0  0  0  0  0  0  0  0  0  0  0
    1.4016    2.1710   -3.2764 H   0  0  0  0  0  0  0  0  0  0  0  0
    0.5650    0.6283   -3.4658 H   0  0  0  0  0  0  0  0  0  0  0  0
   -3.7716    3.2136    0.0759 H   0  0  0  0  0  0  0  0  0  0  0  0
   -4.9925    1.9918   -0.2916 H   0  0  0  0  0  0  0  0  0  0  0  0
   -3.8714    2.4879   -1.5379 H   0  0  0  0  0  0  0  0  0  0  0  0
   -6.4907   -5.3951   -1.8621 H   0  0  0  0  0  0  0  0  0  0  0  0
   -8.7271   -5.9183   -2.6601 H   0  0  0  0  0  0  0  0  0  0  0  0
   -8.5630   -6.0018   -0.2235 H   0  0  0  0  0  0  0  0  0  0  0  0
  -10.8037   -4.8033   -1.4097 H   0  0  0  0  0  0  0  0  0  0  0  0
   -8.9295   -3.7819   -3.5962 H   0  0  0  0  0  0  0  0  0  0  0  0
   -5.8902   -3.9272   -3.6122 H   0  0  0  0  0  0  0  0  0  0  0  0
  1  2  1  0
  2  3  1  0
  3  4  1  0
  4  5  1  0
  5  6  1  0
  6  7  1  0
  7  8  1  0
  8  9  1  0
  9 10  1  0
 10 11  1  0
 11 12  1  0
 12 13  1  0
 11 14  1  0
 10 15  1  0
 15 16  1  0
 16 17  1  0
 17 18  1  0
 18 19  1  0
 19 20  1  0
 20 21  1  0
 19 22  1  0
 22 23  1  0
 23 24  1  0
 24 25  1  0
 23 26  1  0
 22 27  1  0
  8 28  1  0
 28 29  1  0
 29 30  1  0
 30 31  1  0
 30 32  1  0
 30 33  1  0
 29 34  1  0
 34 35  1  0
 35 36  1  0
 36 37  1  0
 37 38  1  0
 38 39  1  0
 39 40  1  0
 40 41  1  0
 41 42  1  0
 41 43  1  0
 43 44  1  0
 44 45  1  0
 44 46  1  0
 46 47  1  0
 47 48  1  0
 48 49  1  0
 49 50  2  0
 50 51  1  0
 51 52  1  0
 52 53  1  0
 53 54  1  0
 54 55  1  0
 55 56  1  0
 55 57  1  0
 54 58  1  0
 58 59  1  0
 59 60  1  0
 60 61  1  0
 61 62  1  0
 62 63  1  0
 63 64  1  0
 64 65  1  0
 65 66  1  0
 66 67  1  0
 67 68  1  0
 66 69  1  0
 69 70  1  0
 70 71  1  0
 71 72  1  0
 70 73  1  0
 69 74  1  0
 61 75  1  0
 75 76  1  0
 76 77  1  0
 77 78  1  0
 76 79  1  0
 75 80  1  0
 46 81  1  0
 40 82  1  0
 36 83  1  0
  5 84  1  0
 84 85  1  0
 85 86  1  0
 86 87  1  0
 85 88  1  0
 84 89  1  0
 86  3  1  0
 12  7  1  0
 24 17  1  0
 41 37  1  0
 51 46  1  0
 77 59  1  0
 47 40  1  0
 55 50  1  0
 71 64  1  0
  1 90  1  0
  2 91  1  0
  2 92  1  0
  3 93  1  0
  5 94  1  0
  7 95  1  0
  8 96  1  0
 10 97  1  0
 11 98  1  0
 12 99  1  0
 13100  1  0
 14101  1  0
 15102  1  0
 15103  1  0
 17104  1  0
 19105  1  0
 20106  1  0
 20107  1  0
 21108  1  0
 22109  1  0
 23110  1  0
 24111  1  0
 25112  1  0
 26113  1  0
 27114  1  0
 29115  1  0
 31116  1  0
 32117  1  0
 32118  1  0
 32119  1  0
 33120  1  0
 33121  1  0
 33122  1  0
 34123  1  0
 34124  1  0
 35125  1  0
 35126  1  0
 36127  1  0
 37128  1  0
 38129  1  0
 38130  1  0
 39131  1  0
 39132  1  0
 42133  1  0
 42134  1  0
 42135  1  0
 43136  1  0
 43137  1  0
 44138  1  0
 45139  1  0
 47140  1  0
 48141  1  0
 48142  1  0
 49143  1  0
 51144  1  0
 52145  1  0
 52146  1  0
 53147  1  0
 53148  1  0
 54149  1  0
 56150  1  0
 56151  1  0
 56152  1  0
 57153  1  0
 57154  1  0
 57155  1  0
 59156  1  0
 61157  1  0
 62158  1  0
 62159  1  0
 64160  1  0
 66161  1  0
 67162  1  0
 67163  1  0
 68164  1  0
 69165  1  0
 70166  1  0
 71167  1  0
 72168  1  0
 73169  1  0
 74170  1  0
 75171  1  0
 76172  1  0
 77173  1  0
 78174  1  0
 79175  1  0
 80176  1  0
 81177  1  0
 81178  1  0
 81179  1  0
 82180  1  0
 82181  1  0
 82182  1  0
 83183  1  0
 83184  1  0
 83185  1  0
 84186  1  0
 85187  1  0
 86188  1  0
 87189  1  0
 88190  1  0
 89191  1  0
M  END
