
     RDKit          3D

 75 78  0  0  0  0  0  0  0  0999 V2000
   -1.8709   -4.1003   -2.0016 O   0  0  0  0  0  0  0  0  0  0  0  0
   -1.0073   -3.4377   -2.9187 C   0  0  0  0  0  0  0  0  0  0  0  0
   -1.3471   -1.9468   -3.0079 C   0  0  0  0  0  0  0  0  0  0  0  0
   -1.1146   -1.3753   -1.7088 O   0  0  0  0  0  0  0  0  0  0  0  0
   -1.3448    0.0447   -1.6841 C   0  0  0  0  0  0  0  0  0  0  0  0
   -1.0606    0.5956   -0.3940 O   0  0  0  0  0  0  0  0  0  0  0  0
    0.2440    0.8211   -0.0641 C   0  0  0  0  0  0  0  0  0  0  0  0
    1.3382    0.1093   -0.5489 C   0  0  0  0  0  0  0  0  0  0  0  0
    2.6325    0.4090   -0.0977 C   0  0  0  0  0  0  0  0  0  0  0  0
    3.6769   -0.3011   -0.6239 O   0  0  0  0  0  0  0  0  0  0  0  0
    2.8524    1.4170    0.8522 C   0  0  0  0  0  0  0  0  0  0  0  0
    1.7365    2.1316    1.3187 C   0  0  0  0  0  0  0  0  0  0  0  0
    0.4486    1.8277    0.8767 C   0  0  0  0  0  0  0  0  0  0  0  0
    1.8197    3.1488    2.2383 O   0  0  0  0  0  0  0  0  0  0  0  0
    4.2011    1.7606    1.4055 C   0  0  0  0  0  0  0  0  0  0  0  0
    4.3277    2.8453    1.9799 O   0  0  0  0  0  0  0  0  0  0  0  0
    5.3498    0.7772    1.2958 C   0  0  0  0  0  0  0  0  0  0  0  0
    6.4993    1.1539    2.2332 C   0  0  0  0  0  0  0  0  0  0  0  0
    7.5754    0.0952    2.2618 C   0  0  0  0  0  0  0  0  0  0  0  0
    7.7427   -0.7150    3.3948 C   0  0  0  0  0  0  0  0  0  0  0  0
    8.7330   -1.6993    3.4249 C   0  0  0  0  0  0  0  0  0  0  0  0
    9.5537   -1.8770    2.3159 C   0  0  0  0  0  0  0  0  0  0  0  0
    9.4017   -1.0858    1.1834 C   0  0  0  0  0  0  0  0  0  0  0  0
    8.4156   -0.0992    1.1559 C   0  0  0  0  0  0  0  0  0  0  0  0
   10.5285   -2.8301    2.2998 O   0  0  0  0  0  0  0  0  0  0  0  0
   -2.8257    0.3529   -2.0303 C   0  0  0  0  0  0  0  0  0  0  0  0
   -3.0906   -0.2069   -3.4350 C   0  0  0  0  0  0  0  0  0  0  0  0
   -2.7946   -1.7119   -3.4753 C   0  0  0  0  0  0  0  0  0  0  0  0
   -2.9853   -2.1666   -4.8216 O   0  0  0  0  0  0  0  0  0  0  0  0
   -4.4394    0.0346   -3.8544 O   0  0  0  0  0  0  0  0  0  0  0  0
   -3.7107   -0.3144   -1.1040 O   0  0  0  0  0  0  0  0  0  0  0  0
   -4.1373    0.5181   -0.0221 C   0  0  0  0  0  0  0  0  0  0  0  0
   -5.0270    1.5150   -0.5417 O   0  0  0  0  0  0  0  0  0  0  0  0
   -5.8313    2.1243    0.4649 C   0  0  0  0  0  0  0  0  0  0  0  0
   -6.5665    3.2999   -0.1697 C   0  0  0  0  0  0  0  0  0  0  0  0
   -6.8273    1.1041    1.0526 C   0  0  0  0  0  0  0  0  0  0  0  0
   -6.3303   -0.3425    0.8642 C   0  0  0  0  0  0  0  0  0  0  0  0
   -4.8121   -0.4001    1.0275 C   0  0  0  0  0  0  0  0  0  0  0  0
   -4.5022    0.0329    2.3731 O   0  0  0  0  0  0  0  0  0  0  0  0
   -6.9436   -1.2021    1.8427 O   0  0  0  0  0  0  0  0  0  0  0  0
   -7.0105    1.3557    2.4606 O   0  0  0  0  0  0  0  0  0  0  0  0
   -1.8197   -3.5962   -1.1649 H   0  0  0  0  0  0  0  0  0  0  0  0
   -1.0999   -3.9277   -3.8932 H   0  0  0  0  0  0  0  0  0  0  0  0
    0.0174   -3.5742   -2.5579 H   0  0  0  0  0  0  0  0  0  0  0  0
   -0.6448   -1.4942   -3.7209 H   0  0  0  0  0  0  0  0  0  0  0  0
   -0.6987    0.5298   -2.4305 H   0  0  0  0  0  0  0  0  0  0  0  0
    1.1939   -0.6993   -1.2562 H   0  0  0  0  0  0  0  0  0  0  0  0
    3.3479   -0.9778   -1.2404 H   0  0  0  0  0  0  0  0  0  0  0  0
   -0.3981    2.3830    1.2733 H   0  0  0  0  0  0  0  0  0  0  0  0
    2.7737    3.3472    2.3855 H   0  0  0  0  0  0  0  0  0  0  0  0
    4.9865   -0.2234    1.5561 H   0  0  0  0  0  0  0  0  0  0  0  0
    5.7106    0.7779    0.2621 H   0  0  0  0  0  0  0  0  0  0  0  0
    6.9467    2.1083    1.9243 H   0  0  0  0  0  0  0  0  0  0  0  0
    6.1168    1.3190    3.2490 H   0  0  0  0  0  0  0  0  0  0  0  0
    7.1012   -0.5830    4.2634 H   0  0  0  0  0  0  0  0  0  0  0  0
    8.8438   -2.3126    4.3127 H   0  0  0  0  0  0  0  0  0  0  0  0
   10.0518   -1.2350    0.3254 H   0  0  0  0  0  0  0  0  0  0  0  0
    8.3060    0.5176    0.2656 H   0  0  0  0  0  0  0  0  0  0  0  0
   10.5612   -3.2485    3.1774 H   0  0  0  0  0  0  0  0  0  0  0  0
   -3.0140    1.4331   -2.0175 H   0  0  0  0  0  0  0  0  0  0  0  0
   -2.4561    0.3123   -4.1651 H   0  0  0  0  0  0  0  0  0  0  0  0
   -3.5202   -2.2381   -2.8425 H   0  0  0  0  0  0  0  0  0  0  0  0
   -3.2152   -3.1143   -4.7649 H   0  0  0  0  0  0  0  0  0  0  0  0
   -4.5783   -0.5425   -4.6287 H   0  0  0  0  0  0  0  0  0  0  0  0
   -3.2814    1.0258    0.4332 H   0  0  0  0  0  0  0  0  0  0  0  0
   -5.1731    2.5320    1.2448 H   0  0  0  0  0  0  0  0  0  0  0  0
   -7.2008    2.9630   -0.9983 H   0  0  0  0  0  0  0  0  0  0  0  0
   -5.8503    4.0122   -0.5945 H   0  0  0  0  0  0  0  0  0  0  0  0
   -7.1877    3.8234    0.5629 H   0  0  0  0  0  0  0  0  0  0  0  0
   -7.8215    1.1945    0.5987 H   0  0  0  0  0  0  0  0  0  0  0  0
   -6.6068   -0.7115   -0.1295 H   0  0  0  0  0  0  0  0  0  0  0  0
   -4.4424   -1.4287    0.9462 H   0  0  0  0  0  0  0  0  0  0  0  0
   -4.8378   -0.6904    2.9416 H   0  0  0  0  0  0  0  0  0  0  0  0
   -7.4865   -0.6168    2.4112 H   0  0  0  0  0  0  0  0  0  0  0  0
   -6.1214    1.2726    2.8673 H   0  0  0  0  0  0  0  0  0  0  0  0
  1  2  1  0
  2  3  1  0
  3  4  1  0
  4  5  1  0
  5  6  1  0
  6  7  1  0
  7  8  2  0
  8  9  1  0
  9 10  1  0
  9 11  2  0
 11 12  1  0
 12 13  2  0
 12 14  1  0
 11 15  1  0
 15 16  2  0
 15 17  1  0
 17 18  1  0
 18 19  1  0
 19 20  2  0
 20 21  1  0
 21 22  2  0
 22 23  1  0
 23 24  2  0
 22 25  1  0
  5 26  1  0
 26 27  1  0
 27 28  1  0
 28 29  1  0
 27 30  1  0
 26 31  1  0
 31 32  1  0
 32 33  1  0
 33 34  1  0
 34 35  1  0
 34 36  1  0
 36 37  1  0
 37 38  1  0
 38 39  1  0
 37 40  1  0
 36 41  1  0
 28  3  1  0
 38 32  1  0
 13  7  1  0
 24 19  1  0
  1 42  1  0
  2 43  1  0
  2 44  1  0
  3 45  1  0
  5 46  1  0
  8 47  1  0
 10 48  1  0
 13 49  1  0
 14 50  1  0
 17 51  1  0
 17 52  1  0
 18 53  1  0
 18 54  1  0
 20 55  1  0
 21 56  1  0
 23 57  1  0
 24 58  1  0
 25 59  1  0
 26 60  1  0
 27 61  1  0
 28 62  1  0
 29 63  1  0
 30 64  1  0
 32 65  1  0
 34 66  1  0
 35 67  1  0
 35 68  1  0
 35 69  1  0
 36 70  1  0
 37 71  1  0
 38 72  1  0
 39 73  1  0
 40 74  1  0
 41 75  1  0
M  END
