
     RDKit          3D

 33 35  0  0  0  0  0  0  0  0999 V2000
    5.6465    0.4869    0.7528 C   0  0  0  0  0  0  0  0  0  0  0  0
    4.9262   -0.7286    0.5833 O   0  0  0  0  0  0  0  0  0  0  0  0
    3.5834   -0.6120    0.3301 C   0  0  0  0  0  0  0  0  0  0  0  0
    2.8640    0.5763    0.2253 C   0  0  0  0  0  0  0  0  0  0  0  0
    1.4887    0.5393   -0.0383 C   0  0  0  0  0  0  0  0  0  0  0  0
    0.8109   -0.6820   -0.2033 C   0  0  0  0  0  0  0  0  0  0  0  0
    1.5392   -1.8732   -0.0934 C   0  0  0  0  0  0  0  0  0  0  0  0
    2.9042   -1.8250    0.1683 C   0  0  0  0  0  0  0  0  0  0  0  0
    3.5825   -3.0107    0.2668 O   0  0  0  0  0  0  0  0  0  0  0  0
   -0.6781   -0.7093   -0.4801 C   0  0  0  0  0  0  0  0  0  0  0  0
   -0.9211    0.0677   -1.6527 O   0  0  0  0  0  0  0  0  0  0  0  0
   -2.2917   -0.0331   -2.0177 C   0  0  0  0  0  0  0  0  0  0  0  0
   -3.1685    0.2548   -0.8394 C   0  0  0  0  0  0  0  0  0  0  0  0
   -2.6448    0.1402    0.4496 C   0  0  0  0  0  0  0  0  0  0  0  0
   -1.3444   -0.2110    0.6859 O   0  0  0  0  0  0  0  0  0  0  0  0
   -3.4386    0.4071    1.5635 C   0  0  0  0  0  0  0  0  0  0  0  0
   -4.7749    0.7680    1.3943 C   0  0  0  0  0  0  0  0  0  0  0  0
   -5.3132    0.8643    0.1114 C   0  0  0  0  0  0  0  0  0  0  0  0
   -4.5139    0.6069   -1.0039 C   0  0  0  0  0  0  0  0  0  0  0  0
    5.6148    1.0949   -0.1573 H   0  0  0  0  0  0  0  0  0  0  0  0
    6.6928    0.2304    0.9451 H   0  0  0  0  0  0  0  0  0  0  0  0
    5.2769    1.0474    1.6178 H   0  0  0  0  0  0  0  0  0  0  0  0
    3.3330    1.5471    0.3416 H   0  0  0  0  0  0  0  0  0  0  0  0
    0.9337    1.4733   -0.1184 H   0  0  0  0  0  0  0  0  0  0  0  0
    1.0562   -2.8395   -0.2081 H   0  0  0  0  0  0  0  0  0  0  0  0
    4.5066   -2.7527    0.4515 H   0  0  0  0  0  0  0  0  0  0  0  0
   -0.9931   -1.7484   -0.6542 H   0  0  0  0  0  0  0  0  0  0  0  0
   -2.4714    0.6943   -2.8159 H   0  0  0  0  0  0  0  0  0  0  0  0
   -2.4941   -1.0362   -2.4105 H   0  0  0  0  0  0  0  0  0  0  0  0
   -3.0165    0.3300    2.5617 H   0  0  0  0  0  0  0  0  0  0  0  0
   -5.3953    0.9733    2.2628 H   0  0  0  0  0  0  0  0  0  0  0  0
   -6.3557    1.1440   -0.0195 H   0  0  0  0  0  0  0  0  0  0  0  0
   -4.9443    0.6901   -1.9993 H   0  0  0  0  0  0  0  0  0  0  0  0
  1  2  1  0
  2  3  1  0
  3  4  2  0
  4  5  1  0
  5  6  2  0
  6  7  1  0
  7  8  2  0
  8  9  1  0
  6 10  1  0
 10 11  1  0
 11 12  1  0
 12 13  1  0
 13 14  2  0
 14 15  1  0
 14 16  1  0
 16 17  2  0
 17 18  1  0
 18 19  2  0
  8  3  1  0
 15 10  1  0
 19 13  1  0
  1 20  1  0
  1 21  1  0
  1 22  1  0
  4 23  1  0
  5 24  1  0
  7 25  1  0
  9 26  1  0
 10 27  1  0
 12 28  1  0
 12 29  1  0
 16 30  1  0
 17 31  1  0
 18 32  1  0
 19 33  1  0
M  END
