
     RDKit          3D

 76 79  0  0  0  0  0  0  0  0999 V2000
   -3.9243   -6.1006   -0.9030 O   0  0  0  0  0  0  0  0  0  0  0  0
   -3.6384   -4.9197   -1.6461 C   0  0  0  0  0  0  0  0  0  0  0  0
   -2.8230   -3.9205   -0.8122 C   0  0  0  0  0  0  0  0  0  0  0  0
   -2.6412   -2.7420   -1.6024 O   0  0  0  0  0  0  0  0  0  0  0  0
   -1.8514   -1.7218   -0.9565 C   0  0  0  0  0  0  0  0  0  0  0  0
   -0.5129   -2.2009   -0.7874 O   0  0  0  0  0  0  0  0  0  0  0  0
    0.5170   -1.3113   -0.9090 C   0  0  0  0  0  0  0  0  0  0  0  0
    0.4243    0.0737   -0.8395 C   0  0  0  0  0  0  0  0  0  0  0  0
    1.5783    0.8570   -0.9470 C   0  0  0  0  0  0  0  0  0  0  0  0
    1.3626    2.2101   -0.8494 O   0  0  0  0  0  0  0  0  0  0  0  0
    2.8530    0.2859   -1.1424 C   0  0  0  0  0  0  0  0  0  0  0  0
    2.9259   -1.1114   -1.2189 C   0  0  0  0  0  0  0  0  0  0  0  0
    1.7715   -1.8988   -1.0901 C   0  0  0  0  0  0  0  0  0  0  0  0
    4.1132   -1.7570   -1.4197 O   0  0  0  0  0  0  0  0  0  0  0  0
    4.0397    1.1999   -1.2470 C   0  0  0  0  0  0  0  0  0  0  0  0
    3.8660    2.3909   -0.9671 O   0  0  0  0  0  0  0  0  0  0  0  0
    5.3840    0.6753   -1.7252 C   0  0  0  0  0  0  0  0  0  0  0  0
    6.4576    1.7625   -1.8375 C   0  0  0  0  0  0  0  0  0  0  0  0
    7.1713    2.0063   -0.5268 C   0  0  0  0  0  0  0  0  0  0  0  0
    6.7617    3.0399    0.3330 C   0  0  0  0  0  0  0  0  0  0  0  0
    7.4040    3.2501    1.5571 C   0  0  0  0  0  0  0  0  0  0  0  0
    8.4589    2.4210    1.9197 C   0  0  0  0  0  0  0  0  0  0  0  0
    8.8695    1.3940    1.0741 C   0  0  0  0  0  0  0  0  0  0  0  0
    8.2371    1.1785   -0.1421 C   0  0  0  0  0  0  0  0  0  0  0  0
    9.9061    0.5828    1.4419 O   0  0  0  0  0  0  0  0  0  0  0  0
    9.1267    2.5743    3.1038 O   0  0  0  0  0  0  0  0  0  0  0  0
   -2.4760   -1.2970    0.3928 C   0  0  0  0  0  0  0  0  0  0  0  0
   -2.7288   -2.5260    1.2727 C   0  0  0  0  0  0  0  0  0  0  0  0
   -3.5191   -3.5995    0.5193 C   0  0  0  0  0  0  0  0  0  0  0  0
   -3.6143   -4.7413    1.3846 O   0  0  0  0  0  0  0  0  0  0  0  0
   -3.4627   -2.1696    2.4669 O   0  0  0  0  0  0  0  0  0  0  0  0
   -3.7340   -0.6474    0.1411 O   0  0  0  0  0  0  0  0  0  0  0  0
   -3.9462    0.4793    0.9941 C   0  0  0  0  0  0  0  0  0  0  0  0
   -3.5012    1.6604    0.3286 O   0  0  0  0  0  0  0  0  0  0  0  0
   -4.5019    2.2232   -0.5312 C   0  0  0  0  0  0  0  0  0  0  0  0
   -3.8364    3.2923   -1.3860 C   0  0  0  0  0  0  0  0  0  0  0  0
   -5.7010    2.7471    0.2918 C   0  0  0  0  0  0  0  0  0  0  0  0
   -5.8814    1.9406    1.5873 C   0  0  0  0  0  0  0  0  0  0  0  0
   -5.4390    0.4957    1.3878 C   0  0  0  0  0  0  0  0  0  0  0  0
   -5.6779   -0.2472    2.5993 O   0  0  0  0  0  0  0  0  0  0  0  0
   -7.2580    1.9950    1.9934 O   0  0  0  0  0  0  0  0  0  0  0  0
   -5.5615    4.1283    0.6484 O   0  0  0  0  0  0  0  0  0  0  0  0
   -4.3055   -6.7402   -1.5340 H   0  0  0  0  0  0  0  0  0  0  0  0
   -3.0778   -5.1975   -2.5436 H   0  0  0  0  0  0  0  0  0  0  0  0
   -4.5810   -4.4754   -1.9769 H   0  0  0  0  0  0  0  0  0  0  0  0
   -1.8498   -4.3859   -0.6033 H   0  0  0  0  0  0  0  0  0  0  0  0
   -1.8835   -0.8838   -1.6629 H   0  0  0  0  0  0  0  0  0  0  0  0
   -0.5196    0.5930   -0.6910 H   0  0  0  0  0  0  0  0  0  0  0  0
    2.2412    2.6572   -0.8254 H   0  0  0  0  0  0  0  0  0  0  0  0
    1.8323   -2.9832   -1.1423 H   0  0  0  0  0  0  0  0  0  0  0  0
    3.9867   -2.7188   -1.3398 H   0  0  0  0  0  0  0  0  0  0  0  0
    5.7325   -0.1125   -1.0502 H   0  0  0  0  0  0  0  0  0  0  0  0
    5.2206    0.2573   -2.7268 H   0  0  0  0  0  0  0  0  0  0  0  0
    7.2089    1.4457   -2.5728 H   0  0  0  0  0  0  0  0  0  0  0  0
    6.0452    2.7027   -2.2252 H   0  0  0  0  0  0  0  0  0  0  0  0
    5.9304    3.6860    0.0537 H   0  0  0  0  0  0  0  0  0  0  0  0
    7.0656    4.0568    2.2021 H   0  0  0  0  0  0  0  0  0  0  0  0
    8.5754    0.3680   -0.7815 H   0  0  0  0  0  0  0  0  0  0  0  0
   10.1670    0.9161    2.3242 H   0  0  0  0  0  0  0  0  0  0  0  0
    8.7519    3.3486    3.5600 H   0  0  0  0  0  0  0  0  0  0  0  0
   -1.7927   -0.6175    0.9151 H   0  0  0  0  0  0  0  0  0  0  0  0
   -1.7707   -2.9418    1.6120 H   0  0  0  0  0  0  0  0  0  0  0  0
   -4.5421   -3.2458    0.3438 H   0  0  0  0  0  0  0  0  0  0  0  0
   -3.8790   -5.4966    0.8121 H   0  0  0  0  0  0  0  0  0  0  0  0
   -3.6718   -3.0393    2.8775 H   0  0  0  0  0  0  0  0  0  0  0  0
   -3.3496    0.3916    1.9102 H   0  0  0  0  0  0  0  0  0  0  0  0
   -4.8557    1.4260   -1.1976 H   0  0  0  0  0  0  0  0  0  0  0  0
   -3.0389    2.8460   -1.9896 H   0  0  0  0  0  0  0  0  0  0  0  0
   -4.5538    3.7702   -2.0605 H   0  0  0  0  0  0  0  0  0  0  0  0
   -3.3581    4.0578   -0.7674 H   0  0  0  0  0  0  0  0  0  0  0  0
   -6.6009    2.6944   -0.3338 H   0  0  0  0  0  0  0  0  0  0  0  0
   -5.3169    2.3966    2.4100 H   0  0  0  0  0  0  0  0  0  0  0  0
   -6.0572    0.0099    0.6214 H   0  0  0  0  0  0  0  0  0  0  0  0
   -5.0572   -1.0101    2.5841 H   0  0  0  0  0  0  0  0  0  0  0  0
   -7.3520    1.2747    2.6491 H   0  0  0  0  0  0  0  0  0  0  0  0
   -6.3410    4.3415    1.1980 H   0  0  0  0  0  0  0  0  0  0  0  0
  1  2  1  0
  2  3  1  0
  3  4  1  0
  4  5  1  0
  5  6  1  0
  6  7  1  0
  7  8  2  0
  8  9  1  0
  9 10  1  0
  9 11  2  0
 11 12  1  0
 12 13  2  0
 12 14  1  0
 11 15  1  0
 15 16  2  0
 15 17  1  0
 17 18  1  0
 18 19  1  0
 19 20  2  0
 20 21  1  0
 21 22  2  0
 22 23  1  0
 23 24  2  0
 23 25  1  0
 22 26  1  0
  5 27  1  0
 27 28  1  0
 28 29  1  0
 29 30  1  0
 28 31  1  0
 27 32  1  0
 32 33  1  0
 33 34  1  0
 34 35  1  0
 35 36  1  0
 35 37  1  0
 37 38  1  0
 38 39  1  0
 39 40  1  0
 38 41  1  0
 37 42  1  0
 29  3  1  0
 39 33  1  0
 13  7  1  0
 24 19  1  0
  1 43  1  0
  2 44  1  0
  2 45  1  0
  3 46  1  0
  5 47  1  0
  8 48  1  0
 10 49  1  0
 13 50  1  0
 14 51  1  0
 17 52  1  0
 17 53  1  0
 18 54  1  0
 18 55  1  0
 20 56  1  0
 21 57  1  0
 24 58  1  0
 25 59  1  0
 26 60  1  0
 27 61  1  0
 28 62  1  0
 29 63  1  0
 30 64  1  0
 31 65  1  0
 33 66  1  0
 35 67  1  0
 36 68  1  0
 36 69  1  0
 36 70  1  0
 37 71  1  0
 38 72  1  0
 39 73  1  0
 40 74  1  0
 41 75  1  0
 42 76  1  0
M  END
