
     RDKit          3D

136143  0  0  0  0  0  0  0  0999 V2000
   -6.2018    4.5802   -0.9109 O   0  0  0  0  0  0  0  0  0  0  0  0
   -7.5946    4.2801   -0.8950 C   0  0  0  0  0  0  0  0  0  0  0  0
   -7.8802    2.9633   -1.6315 C   0  0  0  0  0  0  0  0  0  0  0  0
   -6.9495    1.9426   -1.2173 O   0  0  0  0  0  0  0  0  0  0  0  0
   -7.1466    1.4413    0.1073 C   0  0  0  0  0  0  0  0  0  0  0  0
   -6.1723    0.4249    0.3937 O   0  0  0  0  0  0  0  0  0  0  0  0
   -4.8318    0.9381    0.3929 C   0  0  0  0  0  0  0  0  0  0  0  0
   -4.0074    0.1278    1.3851 C   0  0  0  0  0  0  0  0  0  0  0  0
   -2.5467    0.5876    1.4728 C   0  0  0  0  0  0  0  0  0  0  0  0
   -1.9366    1.1306    0.1445 C   0  0  0  0  0  0  0  0  0  0  0  0
   -2.7260    0.5069   -1.0361 C   0  0  0  0  0  0  0  0  0  0  0  0
   -4.2225    0.8679   -1.0156 C   0  0  0  0  0  0  0  0  0  0  0  0
   -2.0771    0.8470   -2.3729 C   0  0  0  0  0  0  0  0  0  0  0  0
   -2.7149    1.2838   -3.3301 O   0  0  0  0  0  0  0  0  0  0  0  0
   -0.6047    0.5272   -2.5040 C   0  0  0  0  0  0  0  0  0  0  0  0
    0.1871    1.1413   -1.3456 C   0  0  0  0  0  0  0  0  0  0  0  0
   -0.4241    0.7005    0.0228 C   0  0  0  0  0  0  0  0  0  0  0  0
    0.4464    1.1088    1.2418 C   0  0  0  0  0  0  0  0  0  0  0  0
    1.9382    0.7900    1.0708 C   0  0  0  0  0  0  0  0  0  0  0  0
    2.4925    1.3565   -0.2459 C   0  0  0  0  0  0  0  0  0  0  0  0
    1.6664    0.7372   -1.3982 C   0  0  0  0  0  0  0  0  0  0  0  0
    2.4849    1.0622   -2.6493 C   0  0  0  0  0  0  0  0  0  0  0  0
    3.9516    1.1100   -2.1623 C   0  0  0  0  0  0  0  0  0  0  0  0
    3.9034    0.8326   -0.6394 C   0  0  0  0  0  0  0  0  0  0  0  0
    5.0864    1.3312    0.2443 C   0  0  0  0  0  0  0  0  0  0  0  0
    6.1078    0.1951    0.5776 C   0  0  0  0  0  0  0  0  0  0  0  0
    5.4905   -0.9708    1.3746 C   0  0  0  0  0  0  0  0  0  0  0  0
    5.7775   -0.8472    2.8608 C   0  0  0  0  0  0  0  0  0  0  0  0
    7.2889   -0.8112    3.1230 C   0  0  0  0  0  0  0  0  0  0  0  0
    8.0530   -0.1345    1.9680 C   0  0  0  0  0  0  0  0  0  0  0  0
    7.2130    0.7921    1.2850 O   0  0  0  0  0  0  0  0  0  0  0  0
    8.5455   -1.1178    1.0630 O   0  0  0  0  0  0  0  0  0  0  0  0
    9.7552   -0.7068    0.4292 C   0  0  0  0  0  0  0  0  0  0  0  0
   10.8108   -1.4582    1.0596 O   0  0  0  0  0  0  0  0  0  0  0  0
   11.9264   -1.6778    0.1967 C   0  0  0  0  0  0  0  0  0  0  0  0
   13.0821   -2.2130    1.0338 C   0  0  0  0  0  0  0  0  0  0  0  0
   11.5140   -2.6370   -0.9439 C   0  0  0  0  0  0  0  0  0  0  0  0
   10.0611   -2.3944   -1.3913 C   0  0  0  0  0  0  0  0  0  0  0  0
    9.6223   -0.9664   -1.0881 C   0  0  0  0  0  0  0  0  0  0  0  0
   10.4466   -0.0646   -1.8567 O   0  0  0  0  0  0  0  0  0  0  0  0
    9.9517   -2.6336   -2.8061 O   0  0  0  0  0  0  0  0  0  0  0  0
   11.6123   -4.0212   -0.5717 O   0  0  0  0  0  0  0  0  0  0  0  0
    7.5474   -0.0860    4.4489 C   0  0  0  0  0  0  0  0  0  0  0  0
    5.8281    2.5411   -0.3483 C   0  0  0  0  0  0  0  0  0  0  0  0
    2.4466    2.9042   -0.2093 C   0  0  0  0  0  0  0  0  0  0  0  0
   -2.0632    2.6804    0.1263 C   0  0  0  0  0  0  0  0  0  0  0  0
   -8.5571    0.8285    0.2487 C   0  0  0  0  0  0  0  0  0  0  0  0
   -9.5912    1.9110   -0.0933 C   0  0  0  0  0  0  0  0  0  0  0  0
   -9.3354    2.4967   -1.4939 C   0  0  0  0  0  0  0  0  0  0  0  0
   -9.6034    1.4960   -2.4949 O   0  0  0  0  0  0  0  0  0  0  0  0
  -10.9159    1.3835   -0.0170 O   0  0  0  0  0  0  0  0  0  0  0  0
   -8.6883   -0.2458   -0.7104 O   0  0  0  0  0  0  0  0  0  0  0  0
   -8.8182   -1.5299   -0.0887 C   0  0  0  0  0  0  0  0  0  0  0  0
  -10.1642   -1.6759    0.3543 O   0  0  0  0  0  0  0  0  0  0  0  0
  -10.4559   -2.9550    0.9253 C   0  0  0  0  0  0  0  0  0  0  0  0
   -9.8339   -3.0965    2.3147 C   0  0  0  0  0  0  0  0  0  0  0  0
  -10.1439   -4.0970   -0.0610 C   0  0  0  0  0  0  0  0  0  0  0  0
   -8.7500   -3.9795   -0.6832 C   0  0  0  0  0  0  0  0  0  0  0  0
   -8.4677   -2.5624   -1.1756 C   0  0  0  0  0  0  0  0  0  0  0  0
   -7.0794   -2.4852   -1.5573 O   0  0  0  0  0  0  0  0  0  0  0  0
   -7.7610   -4.3717    0.2909 O   0  0  0  0  0  0  0  0  0  0  0  0
  -10.2909   -5.3764    0.5622 O   0  0  0  0  0  0  0  0  0  0  0  0
   -5.7423    3.8384   -1.3507 H   0  0  0  0  0  0  0  0  0  0  0  0
   -7.9005    4.2440    0.1511 H   0  0  0  0  0  0  0  0  0  0  0  0
   -8.1321    5.1087   -1.3681 H   0  0  0  0  0  0  0  0  0  0  0  0
   -7.6584    3.1196   -2.6957 H   0  0  0  0  0  0  0  0  0  0  0  0
   -7.0298    2.2488    0.8401 H   0  0  0  0  0  0  0  0  0  0  0  0
   -4.8526    1.9752    0.7510 H   0  0  0  0  0  0  0  0  0  0  0  0
   -4.4690    0.1681    2.3805 H   0  0  0  0  0  0  0  0  0  0  0  0
   -4.0457   -0.9314    1.1006 H   0  0  0  0  0  0  0  0  0  0  0  0
   -2.4572    1.3486    2.2577 H   0  0  0  0  0  0  0  0  0  0  0  0
   -1.9749   -0.2786    1.8335 H   0  0  0  0  0  0  0  0  0  0  0  0
   -2.6589   -0.5871   -0.9622 H   0  0  0  0  0  0  0  0  0  0  0  0
   -4.3769    1.8421   -1.5029 H   0  0  0  0  0  0  0  0  0  0  0  0
   -4.7757    0.1462   -1.6364 H   0  0  0  0  0  0  0  0  0  0  0  0
   -0.5001   -0.5631   -2.5277 H   0  0  0  0  0  0  0  0  0  0  0  0
   -0.2460    0.9209   -3.4616 H   0  0  0  0  0  0  0  0  0  0  0  0
    0.1215    2.2298   -1.4445 H   0  0  0  0  0  0  0  0  0  0  0  0
   -0.4123   -0.4017    0.0225 H   0  0  0  0  0  0  0  0  0  0  0  0
    0.0992    0.5832    2.1386 H   0  0  0  0  0  0  0  0  0  0  0  0
    0.3387    2.1740    1.4645 H   0  0  0  0  0  0  0  0  0  0  0  0
    2.4968    1.1869    1.9271 H   0  0  0  0  0  0  0  0  0  0  0  0
    2.0687   -0.2994    1.0944 H   0  0  0  0  0  0  0  0  0  0  0  0
    1.6963   -0.3612   -1.2943 H   0  0  0  0  0  0  0  0  0  0  0  0
    2.3501    0.2975   -3.4220 H   0  0  0  0  0  0  0  0  0  0  0  0
    2.1934    2.0255   -3.0812 H   0  0  0  0  0  0  0  0  0  0  0  0
    4.5696    0.3689   -2.6760 H   0  0  0  0  0  0  0  0  0  0  0  0
    4.3592    2.0920   -2.4081 H   0  0  0  0  0  0  0  0  0  0  0  0
    3.8635   -0.2612   -0.5618 H   0  0  0  0  0  0  0  0  0  0  0  0
    4.6856    1.6646    1.2114 H   0  0  0  0  0  0  0  0  0  0  0  0
    6.4900   -0.1913   -0.3766 H   0  0  0  0  0  0  0  0  0  0  0  0
    4.4142   -1.0703    1.2251 H   0  0  0  0  0  0  0  0  0  0  0  0
    5.9273   -1.9123    1.0142 H   0  0  0  0  0  0  0  0  0  0  0  0
    5.3340   -1.6926    3.4025 H   0  0  0  0  0  0  0  0  0  0  0  0
    5.2916    0.0604    3.2428 H   0  0  0  0  0  0  0  0  0  0  0  0
    7.6594   -1.8404    3.2344 H   0  0  0  0  0  0  0  0  0  0  0  0
    8.8933    0.4333    2.3947 H   0  0  0  0  0  0  0  0  0  0  0  0
    9.9675    0.3626    0.5858 H   0  0  0  0  0  0  0  0  0  0  0  0
   12.2400   -0.7099   -0.2174 H   0  0  0  0  0  0  0  0  0  0  0  0
   12.8134   -3.1449    1.5537 H   0  0  0  0  0  0  0  0  0  0  0  0
   13.9681   -2.3944    0.4133 H   0  0  0  0  0  0  0  0  0  0  0  0
   13.3497   -1.4929    1.8184 H   0  0  0  0  0  0  0  0  0  0  0  0
   12.2101   -2.5125   -1.7836 H   0  0  0  0  0  0  0  0  0  0  0  0
    9.3778   -3.0994   -0.9017 H   0  0  0  0  0  0  0  0  0  0  0  0
    8.5952   -0.7983   -1.4297 H   0  0  0  0  0  0  0  0  0  0  0  0
   10.3732   -0.3891   -2.7760 H   0  0  0  0  0  0  0  0  0  0  0  0
   10.2764   -3.5445   -2.9476 H   0  0  0  0  0  0  0  0  0  0  0  0
   11.1957   -4.1159    0.3133 H   0  0  0  0  0  0  0  0  0  0  0  0
    8.6153   -0.1010    4.6966 H   0  0  0  0  0  0  0  0  0  0  0  0
    7.2260    0.9612    4.3959 H   0  0  0  0  0  0  0  0  0  0  0  0
    7.0065   -0.5710    5.2668 H   0  0  0  0  0  0  0  0  0  0  0  0
    6.5050    2.9857    0.3876 H   0  0  0  0  0  0  0  0  0  0  0  0
    5.1440    3.3358   -0.6505 H   0  0  0  0  0  0  0  0  0  0  0  0
    6.4285    2.2526   -1.2157 H   0  0  0  0  0  0  0  0  0  0  0  0
    2.8167    3.3573   -1.1352 H   0  0  0  0  0  0  0  0  0  0  0  0
    3.0570    3.2913    0.6159 H   0  0  0  0  0  0  0  0  0  0  0  0
    1.4383    3.2963   -0.0574 H   0  0  0  0  0  0  0  0  0  0  0  0
   -1.7598    3.1113   -0.8315 H   0  0  0  0  0  0  0  0  0  0  0  0
   -3.0861    3.0216    0.3025 H   0  0  0  0  0  0  0  0  0  0  0  0
   -1.4554    3.1466    0.9062 H   0  0  0  0  0  0  0  0  0  0  0  0
   -8.7192    0.4537    1.2698 H   0  0  0  0  0  0  0  0  0  0  0  0
   -9.5334    2.7075    0.6560 H   0  0  0  0  0  0  0  0  0  0  0  0
  -10.0333    3.3173   -1.6962 H   0  0  0  0  0  0  0  0  0  0  0  0
   -9.0714    0.7076   -2.2521 H   0  0  0  0  0  0  0  0  0  0  0  0
  -10.9512    0.6600   -0.6764 H   0  0  0  0  0  0  0  0  0  0  0  0
   -8.1104   -1.6010    0.7460 H   0  0  0  0  0  0  0  0  0  0  0  0
  -11.5436   -2.9647    1.0899 H   0  0  0  0  0  0  0  0  0  0  0  0
  -10.1093   -2.2378    2.9397 H   0  0  0  0  0  0  0  0  0  0  0  0
   -8.7409   -3.1184    2.2871 H   0  0  0  0  0  0  0  0  0  0  0  0
  -10.1802   -4.0073    2.8121 H   0  0  0  0  0  0  0  0  0  0  0  0
  -10.8771   -4.0400   -0.8737 H   0  0  0  0  0  0  0  0  0  0  0  0
   -8.6424   -4.7039   -1.5012 H   0  0  0  0  0  0  0  0  0  0  0  0
   -9.0629   -2.3663   -2.0767 H   0  0  0  0  0  0  0  0  0  0  0  0
   -6.7309   -1.6308   -1.2109 H   0  0  0  0  0  0  0  0  0  0  0  0
   -6.9007   -4.2282   -0.1617 H   0  0  0  0  0  0  0  0  0  0  0  0
   -9.3976   -5.6148    0.8794 H   0  0  0  0  0  0  0  0  0  0  0  0
  1  2  1  0
  2  3  1  0
  3  4  1  0
  4  5  1  0
  5  6  1  0
  6  7  1  0
  7  8  1  0
  8  9  1  0
  9 10  1  0
 10 11  1  0
 11 12  1  0
 11 13  1  0
 13 14  2  0
 13 15  1  0
 15 16  1  0
 16 17  1  0
 17 18  1  0
 18 19  1  0
 19 20  1  0
 20 21  1  0
 21 22  1  0
 22 23  1  0
 23 24  1  0
 24 25  1  0
 25 26  1  0
 26 27  1  0
 27 28  1  0
 28 29  1  0
 29 30  1  0
 30 31  1  0
 30 32  1  0
 32 33  1  0
 33 34  1  0
 34 35  1  0
 35 36  1  0
 35 37  1  0
 37 38  1  0
 38 39  1  0
 39 40  1  0
 38 41  1  0
 37 42  1  0
 29 43  1  0
 25 44  1  0
 20 45  1  0
 10 46  1  0
  5 47  1  0
 47 48  1  0
 48 49  1  0
 49 50  1  0
 48 51  1  0
 47 52  1  0
 52 53  1  0
 53 54  1  0
 54 55  1  0
 55 56  1  0
 55 57  1  0
 57 58  1  0
 58 59  1  0
 59 60  1  0
 58 61  1  0
 57 62  1  0
 49  3  1  0
 59 53  1  0
 12  7  1  0
 21 16  1  0
 31 26  1  0
 39 33  1  0
 17 10  1  0
 24 20  1  0
  1 63  1  0
  2 64  1  0
  2 65  1  0
  3 66  1  0
  5 67  1  0
  7 68  1  0
  8 69  1  0
  8 70  1  0
  9 71  1  0
  9 72  1  0
 11 73  1  0
 12 74  1  0
 12 75  1  0
 15 76  1  0
 15 77  1  0
 16 78  1  0
 17 79  1  0
 18 80  1  0
 18 81  1  0
 19 82  1  0
 19 83  1  0
 21 84  1  0
 22 85  1  0
 22 86  1  0
 23 87  1  0
 23 88  1  0
 24 89  1  0
 25 90  1  0
 26 91  1  0
 27 92  1  0
 27 93  1  0
 28 94  1  0
 28 95  1  0
 29 96  1  0
 30 97  1  0
 33 98  1  0
 35 99  1  0
 36100  1  0
 36101  1  0
 36102  1  0
 37103  1  0
 38104  1  0
 39105  1  0
 40106  1  0
 41107  1  0
 42108  1  0
 43109  1  0
 43110  1  0
 43111  1  0
 44112  1  0
 44113  1  0
 44114  1  0
 45115  1  0
 45116  1  0
 45117  1  0
 46118  1  0
 46119  1  0
 46120  1  0
 47121  1  0
 48122  1  0
 49123  1  0
 50124  1  0
 51125  1  0
 53126  1  0
 55127  1  0
 56128  1  0
 56129  1  0
 56130  1  0
 57131  1  0
 58132  1  0
 59133  1  0
 60134  1  0
 61135  1  0
 62136  1  0
M  END
