
     RDKit          3D

134141  0  0  0  0  0  0  0  0999 V2000
    5.2799   -3.1406   -0.7845 O   0  0  0  0  0  0  0  0  0  0  0  0
    5.8220   -3.9744    0.2327 C   0  0  0  0  0  0  0  0  0  0  0  0
    7.2120   -3.5001    0.6860 C   0  0  0  0  0  0  0  0  0  0  0  0
    7.1328   -2.4036    1.6022 O   0  0  0  0  0  0  0  0  0  0  0  0
    6.7497   -1.1463    1.0466 C   0  0  0  0  0  0  0  0  0  0  0  0
    5.3220   -0.9901    1.1256 O   0  0  0  0  0  0  0  0  0  0  0  0
    4.8845   -0.5634    2.4193 C   0  0  0  0  0  0  0  0  0  0  0  0
    4.0548   -1.6812    3.0460 C   0  0  0  0  0  0  0  0  0  0  0  0
    2.6740   -1.8301    2.3987 C   0  0  0  0  0  0  0  0  0  0  0  0
    1.8515   -0.5044    2.3736 C   0  0  0  0  0  0  0  0  0  0  0  0
    2.6935    0.5813    1.6466 C   0  0  0  0  0  0  0  0  0  0  0  0
    4.1013    0.7501    2.2647 C   0  0  0  0  0  0  0  0  0  0  0  0
    2.7934    0.3408    0.1400 C   0  0  0  0  0  0  0  0  0  0  0  0
    3.7509    0.6987   -0.5476 O   0  0  0  0  0  0  0  0  0  0  0  0
    1.6345   -0.2557   -0.5590 C   0  0  0  0  0  0  0  0  0  0  0  0
    0.5641   -0.7051    0.1151 C   0  0  0  0  0  0  0  0  0  0  0  0
    0.4796   -0.7751    1.6382 C   0  0  0  0  0  0  0  0  0  0  0  0
   -0.7174    0.0989    2.0966 C   0  0  0  0  0  0  0  0  0  0  0  0
   -2.0396   -0.2240    1.3609 C   0  0  0  0  0  0  0  0  0  0  0  0
   -1.8954   -0.1725   -0.1781 C   0  0  0  0  0  0  0  0  0  0  0  0
   -0.7265   -1.1346   -0.5508 C   0  0  0  0  0  0  0  0  0  0  0  0
   -0.8398   -1.2754   -2.0665 C   0  0  0  0  0  0  0  0  0  0  0  0
   -2.3420   -1.1793   -2.3516 C   0  0  0  0  0  0  0  0  0  0  0  0
   -3.0517   -0.8213   -1.0120 C   0  0  0  0  0  0  0  0  0  0  0  0
   -4.3757   -0.0253   -1.2369 C   0  0  0  0  0  0  0  0  0  0  0  0
   -5.1816    0.2653    0.0599 C   0  0  0  0  0  0  0  0  0  0  0  0
   -5.6701   -0.9902    0.7837 C   0  0  0  0  0  0  0  0  0  0  0  0
   -6.3613   -0.6149    2.0923 C   0  0  0  0  0  0  0  0  0  0  0  0
   -7.2086    0.6597    1.9758 C   0  0  0  0  0  0  0  0  0  0  0  0
   -7.4441    1.0697    0.5124 C   0  0  0  0  0  0  0  0  0  0  0  0
   -6.2468    1.1741   -0.2623 O   0  0  0  0  0  0  0  0  0  0  0  0
   -8.3242    0.1245   -0.1042 O   0  0  0  0  0  0  0  0  0  0  0  0
   -9.5467    0.7000   -0.5788 C   0  0  0  0  0  0  0  0  0  0  0  0
  -10.0713   -0.1895   -1.5792 O   0  0  0  0  0  0  0  0  0  0  0  0
  -11.2825    0.2945   -2.1596 C   0  0  0  0  0  0  0  0  0  0  0  0
  -11.6306   -0.6290   -3.3262 C   0  0  0  0  0  0  0  0  0  0  0  0
  -12.3942    0.3119   -1.0953 C   0  0  0  0  0  0  0  0  0  0  0  0
  -11.9591    1.1856    0.0848 C   0  0  0  0  0  0  0  0  0  0  0  0
  -10.5586    0.8372    0.5877 C   0  0  0  0  0  0  0  0  0  0  0  0
  -10.1647    1.8522    1.5286 O   0  0  0  0  0  0  0  0  0  0  0  0
  -11.9656    2.5756   -0.3144 O   0  0  0  0  0  0  0  0  0  0  0  0
  -13.6207    0.8566   -1.5983 O   0  0  0  0  0  0  0  0  0  0  0  0
   -6.5903    1.8113    2.7674 C   0  0  0  0  0  0  0  0  0  0  0  0
   -5.2781   -0.7275   -2.2756 C   0  0  0  0  0  0  0  0  0  0  0  0
   -1.6531    1.2925   -0.6232 C   0  0  0  0  0  0  0  0  0  0  0  0
    1.5862   -0.0644    3.8398 C   0  0  0  0  0  0  0  0  0  0  0  0
    7.2312   -0.8613   -0.3998 C   0  0  0  0  0  0  0  0  0  0  0  0
    8.4568   -1.7235   -0.7118 C   0  0  0  0  0  0  0  0  0  0  0  0
    8.1686   -3.2162   -0.4903 C   0  0  0  0  0  0  0  0  0  0  0  0
    9.4268   -3.8726   -0.2473 O   0  0  0  0  0  0  0  0  0  0  0  0
    9.5736   -1.3265    0.1118 O   0  0  0  0  0  0  0  0  0  0  0  0
    7.4791    0.5667   -0.4899 O   0  0  0  0  0  0  0  0  0  0  0  0
    7.9815    1.0060   -1.7521 C   0  0  0  0  0  0  0  0  0  0  0  0
    9.4126    0.9297   -1.7055 O   0  0  0  0  0  0  0  0  0  0  0  0
   10.0587    2.1916   -1.5124 C   0  0  0  0  0  0  0  0  0  0  0  0
   11.5499    1.9196   -1.3361 C   0  0  0  0  0  0  0  0  0  0  0  0
    9.7485    3.1521   -2.6855 C   0  0  0  0  0  0  0  0  0  0  0  0
    8.2496    3.1304   -3.0737 C   0  0  0  0  0  0  0  0  0  0  0  0
    7.4062    2.4242   -2.0168 C   0  0  0  0  0  0  0  0  0  0  0  0
    7.3915    3.2075   -0.8058 O   0  0  0  0  0  0  0  0  0  0  0  0
    8.0655    2.4802   -4.3421 O   0  0  0  0  0  0  0  0  0  0  0  0
   10.4973    2.8248   -3.8716 O   0  0  0  0  0  0  0  0  0  0  0  0
    4.5855   -2.5821   -0.3653 H   0  0  0  0  0  0  0  0  0  0  0  0
    5.8969   -4.9837   -0.1888 H   0  0  0  0  0  0  0  0  0  0  0  0
    5.1224   -4.0109    1.0728 H   0  0  0  0  0  0  0  0  0  0  0  0
    7.6270   -4.3222    1.2824 H   0  0  0  0  0  0  0  0  0  0  0  0
    7.2180   -0.3847    1.6817 H   0  0  0  0  0  0  0  0  0  0  0  0
    5.7392   -0.3641    3.0797 H   0  0  0  0  0  0  0  0  0  0  0  0
    4.5879   -2.6359    2.9512 H   0  0  0  0  0  0  0  0  0  0  0  0
    3.9460   -1.4984    4.1215 H   0  0  0  0  0  0  0  0  0  0  0  0
    2.1190   -2.6001    2.9504 H   0  0  0  0  0  0  0  0  0  0  0  0
    2.8019   -2.2204    1.3805 H   0  0  0  0  0  0  0  0  0  0  0  0
    2.1794    1.5500    1.7367 H   0  0  0  0  0  0  0  0  0  0  0  0
    4.6890    1.4565    1.6669 H   0  0  0  0  0  0  0  0  0  0  0  0
    3.9955    1.2135    3.2529 H   0  0  0  0  0  0  0  0  0  0  0  0
    1.6939   -0.2226   -1.6394 H   0  0  0  0  0  0  0  0  0  0  0  0
    0.1978   -1.8083    1.8862 H   0  0  0  0  0  0  0  0  0  0  0  0
   -0.9117   -0.0592    3.1631 H   0  0  0  0  0  0  0  0  0  0  0  0
   -0.4754    1.1595    1.9715 H   0  0  0  0  0  0  0  0  0  0  0  0
   -2.7915    0.4853    1.7138 H   0  0  0  0  0  0  0  0  0  0  0  0
   -2.3785   -1.2251    1.6682 H   0  0  0  0  0  0  0  0  0  0  0  0
   -0.9549   -2.1370   -0.1454 H   0  0  0  0  0  0  0  0  0  0  0  0
   -0.4287   -2.2321   -2.4069 H   0  0  0  0  0  0  0  0  0  0  0  0
   -0.3138   -0.4807   -2.6062 H   0  0  0  0  0  0  0  0  0  0  0  0
   -2.5120   -0.4122   -3.1159 H   0  0  0  0  0  0  0  0  0  0  0  0
   -2.7252   -2.1264   -2.7470 H   0  0  0  0  0  0  0  0  0  0  0  0
   -3.3105   -1.7796   -0.5405 H   0  0  0  0  0  0  0  0  0  0  0  0
   -4.1282    0.9470   -1.6838 H   0  0  0  0  0  0  0  0  0  0  0  0
   -4.5371    0.8308    0.7328 H   0  0  0  0  0  0  0  0  0  0  0  0
   -6.3831   -1.5413    0.1582 H   0  0  0  0  0  0  0  0  0  0  0  0
   -4.8484   -1.6760    1.0086 H   0  0  0  0  0  0  0  0  0  0  0  0
   -6.9967   -1.4559    2.3980 H   0  0  0  0  0  0  0  0  0  0  0  0
   -5.6078   -0.5104    2.8831 H   0  0  0  0  0  0  0  0  0  0  0  0
   -8.1731    0.4357    2.4387 H   0  0  0  0  0  0  0  0  0  0  0  0
   -7.8877    2.0725    0.4882 H   0  0  0  0  0  0  0  0  0  0  0  0
   -9.3365    1.6687   -1.0527 H   0  0  0  0  0  0  0  0  0  0  0  0
  -11.1190    1.2995   -2.5710 H   0  0  0  0  0  0  0  0  0  0  0  0
  -11.8228   -1.6470   -2.9709 H   0  0  0  0  0  0  0  0  0  0  0  0
  -10.7938   -0.6903   -4.0274 H   0  0  0  0  0  0  0  0  0  0  0  0
  -12.5091   -0.2769   -3.8718 H   0  0  0  0  0  0  0  0  0  0  0  0
  -12.5824   -0.7046   -0.7281 H   0  0  0  0  0  0  0  0  0  0  0  0
  -12.6854    1.1211    0.9026 H   0  0  0  0  0  0  0  0  0  0  0  0
  -10.5944   -0.1148    1.1354 H   0  0  0  0  0  0  0  0  0  0  0  0
  -10.5224    2.6947    1.1680 H   0  0  0  0  0  0  0  0  0  0  0  0
  -12.8317    2.6949   -0.7587 H   0  0  0  0  0  0  0  0  0  0  0  0
  -13.9511    0.2554   -2.2917 H   0  0  0  0  0  0  0  0  0  0  0  0
   -6.4185    1.5279    3.8138 H   0  0  0  0  0  0  0  0  0  0  0  0
   -7.2646    2.6761    2.7722 H   0  0  0  0  0  0  0  0  0  0  0  0
   -5.6314    2.1371    2.3458 H   0  0  0  0  0  0  0  0  0  0  0  0
   -4.8158   -0.7276   -3.2657 H   0  0  0  0  0  0  0  0  0  0  0  0
   -5.4738   -1.7686   -1.9957 H   0  0  0  0  0  0  0  0  0  0  0  0
   -6.2442   -0.2194   -2.3811 H   0  0  0  0  0  0  0  0  0  0  0  0
   -1.5452    1.3858   -1.7081 H   0  0  0  0  0  0  0  0  0  0  0  0
   -0.7489    1.7209   -0.1790 H   0  0  0  0  0  0  0  0  0  0  0  0
   -2.4865    1.9313   -0.3203 H   0  0  0  0  0  0  0  0  0  0  0  0
    1.0730    0.9025    3.8818 H   0  0  0  0  0  0  0  0  0  0  0  0
    2.5002    0.0644    4.4277 H   0  0  0  0  0  0  0  0  0  0  0  0
    0.9726   -0.8043    4.3677 H   0  0  0  0  0  0  0  0  0  0  0  0
    6.4299   -1.0723   -1.1157 H   0  0  0  0  0  0  0  0  0  0  0  0
    8.7907   -1.5893   -1.7474 H   0  0  0  0  0  0  0  0  0  0  0  0
    7.7716   -3.6655   -1.4091 H   0  0  0  0  0  0  0  0  0  0  0  0
    9.9557   -3.2103    0.2494 H   0  0  0  0  0  0  0  0  0  0  0  0
    9.8259   -0.4333   -0.2198 H   0  0  0  0  0  0  0  0  0  0  0  0
    7.6485    0.3417   -2.5580 H   0  0  0  0  0  0  0  0  0  0  0  0
    9.7044    2.6277   -0.5712 H   0  0  0  0  0  0  0  0  0  0  0  0
   11.7186    1.3909   -0.3904 H   0  0  0  0  0  0  0  0  0  0  0  0
   11.9467    1.2755   -2.1266 H   0  0  0  0  0  0  0  0  0  0  0  0
   12.1207    2.8531   -1.3058 H   0  0  0  0  0  0  0  0  0  0  0  0
   10.0376    4.1679   -2.3968 H   0  0  0  0  0  0  0  0  0  0  0  0
    7.9080    4.1641   -3.1931 H   0  0  0  0  0  0  0  0  0  0  0  0
    6.3596    2.3309   -2.3353 H   0  0  0  0  0  0  0  0  0  0  0  0
    7.0244    2.5963   -0.1338 H   0  0  0  0  0  0  0  0  0  0  0  0
    8.9657    2.4613   -4.7377 H   0  0  0  0  0  0  0  0  0  0  0  0
   11.4443    2.9573   -3.6736 H   0  0  0  0  0  0  0  0  0  0  0  0
  1  2  1  0
  2  3  1  0
  3  4  1  0
  4  5  1  0
  5  6  1  0
  6  7  1  0
  7  8  1  0
  8  9  1  0
  9 10  1  0
 10 11  1  0
 11 12  1  0
 11 13  1  0
 13 14  2  0
 13 15  1  0
 15 16  2  0
 16 17  1  0
 17 18  1  0
 18 19  1  0
 19 20  1  0
 20 21  1  0
 21 22  1  0
 22 23  1  0
 23 24  1  0
 24 25  1  0
 25 26  1  0
 26 27  1  0
 27 28  1  0
 28 29  1  0
 29 30  1  0
 30 31  1  0
 30 32  1  0
 32 33  1  0
 33 34  1  0
 34 35  1  0
 35 36  1  0
 35 37  1  0
 37 38  1  0
 38 39  1  0
 39 40  1  0
 38 41  1  0
 37 42  1  0
 29 43  1  0
 25 44  1  0
 20 45  1  0
 10 46  1  0
  5 47  1  0
 47 48  1  0
 48 49  1  0
 49 50  1  0
 48 51  1  0
 47 52  1  0
 52 53  1  0
 53 54  1  0
 54 55  1  0
 55 56  1  0
 55 57  1  0
 57 58  1  0
 58 59  1  0
 59 60  1  0
 58 61  1  0
 57 62  1  0
 49  3  1  0
 59 53  1  0
 12  7  1  0
 21 16  1  0
 31 26  1  0
 39 33  1  0
 17 10  1  0
 24 20  1  0
  1 63  1  0
  2 64  1  0
  2 65  1  0
  3 66  1  0
  5 67  1  0
  7 68  1  0
  8 69  1  0
  8 70  1  0
  9 71  1  0
  9 72  1  0
 11 73  1  0
 12 74  1  0
 12 75  1  0
 15 76  1  0
 17 77  1  0
 18 78  1  0
 18 79  1  0
 19 80  1  0
 19 81  1  0
 21 82  1  0
 22 83  1  0
 22 84  1  0
 23 85  1  0
 23 86  1  0
 24 87  1  0
 25 88  1  0
 26 89  1  0
 27 90  1  0
 27 91  1  0
 28 92  1  0
 28 93  1  0
 29 94  1  0
 30 95  1  0
 33 96  1  0
 35 97  1  0
 36 98  1  0
 36 99  1  0
 36100  1  0
 37101  1  0
 38102  1  0
 39103  1  0
 40104  1  0
 41105  1  0
 42106  1  0
 43107  1  0
 43108  1  0
 43109  1  0
 44110  1  0
 44111  1  0
 44112  1  0
 45113  1  0
 45114  1  0
 45115  1  0
 46116  1  0
 46117  1  0
 46118  1  0
 47119  1  0
 48120  1  0
 49121  1  0
 50122  1  0
 51123  1  0
 53124  1  0
 55125  1  0
 56126  1  0
 56127  1  0
 56128  1  0
 57129  1  0
 58130  1  0
 59131  1  0
 60132  1  0
 61133  1  0
 62134  1  0
M  END
