
     RDKit          3D

121126  0  0  0  0  0  0  0  0999 V2000
   -2.2300   -0.1387    2.0343 C   0  0  0  0  0  0  0  0  0  0  0  0
   -1.5474    0.6956    0.9192 C   0  0  0  0  0  0  0  0  0  0  0  0
    0.0274    0.4669    0.8936 C   0  0  0  0  0  0  0  0  0  0  0  0
    0.7414    1.6572    0.1951 C   0  0  0  0  0  0  0  0  0  0  0  0
    2.2560    1.5423   -0.0111 C   0  0  0  0  0  0  0  0  0  0  0  0
    2.7024    0.2409   -0.7339 C   0  0  0  0  0  0  0  0  0  0  0  0
    2.0807   -0.9363    0.1079 C   0  0  0  0  0  0  0  0  0  0  0  0
    0.4891   -0.9253    0.3113 C   0  0  0  0  0  0  0  0  0  0  0  0
   -0.2853   -1.2665   -1.0018 C   0  0  0  0  0  0  0  0  0  0  0  0
   -1.7988   -1.0499   -0.9358 C   0  0  0  0  0  0  0  0  0  0  0  0
   -2.1524    0.3646   -0.4783 C   0  0  0  0  0  0  0  0  0  0  0  0
   -3.5807    0.4659   -0.4306 O   0  0  0  0  0  0  0  0  0  0  0  0
   -4.0750    1.5385   -1.2519 C   0  0  0  0  0  0  0  0  0  0  0  0
   -5.5424    1.7932   -0.8673 C   0  0  0  0  0  0  0  0  0  0  0  0
   -6.0893    2.9518   -1.7042 C   0  0  0  0  0  0  0  0  0  0  0  0
   -5.8258    2.7378   -3.2067 C   0  0  0  0  0  0  0  0  0  0  0  0
   -4.3773    2.3151   -3.5014 C   0  0  0  0  0  0  0  0  0  0  0  0
   -3.9765    1.2071   -2.6401 O   0  0  0  0  0  0  0  0  0  0  0  0
   -3.3716    3.4911   -3.4042 C   0  0  0  0  0  0  0  0  0  0  0  0
   -2.3473    3.4086   -4.1383 O   0  0  0  0  0  0  0  0  0  0  0  0
   -3.6645    4.3924   -2.5659 O   0  0  0  0  0  1  0  0  0  0  0  0
   -6.7384    1.7184   -3.6702 O   0  0  0  0  0  0  0  0  0  0  0  0
   -7.5042    3.0791   -1.4596 O   0  0  0  0  0  0  0  0  0  0  0  0
   -6.3506    0.6122   -1.1080 O   0  0  0  0  0  0  0  0  0  0  0  0
   -6.7534   -0.0273    0.1015 C   0  0  0  0  0  0  0  0  0  0  0  0
   -7.9277    0.7415    0.7578 C   0  0  0  0  0  0  0  0  0  0  0  0
   -8.3087    0.0259    2.0491 C   0  0  0  0  0  0  0  0  0  0  0  0
   -8.6434   -1.4468    1.7716 C   0  0  0  0  0  0  0  0  0  0  0  0
   -7.4716   -2.1090    1.0211 C   0  0  0  0  0  0  0  0  0  0  0  0
   -7.1601   -1.3751   -0.1766 O   0  0  0  0  0  0  0  0  0  0  0  0
   -7.7876   -3.5611    0.6253 C   0  0  0  0  0  0  0  0  0  0  0  0
   -7.2527   -4.4635    1.5939 O   0  0  0  0  0  0  0  0  0  0  0  0
   -8.9256   -2.0825    3.0243 O   0  0  0  0  0  0  0  0  0  0  0  0
   -9.4532    0.6577    2.6604 O   0  0  0  0  0  0  0  0  0  0  0  0
   -9.0811    0.7797   -0.1080 O   0  0  0  0  0  0  0  0  0  0  0  0
    0.1273   -2.1091    1.2726 C   0  0  0  0  0  0  0  0  0  0  0  0
    2.8098   -0.9370    1.4832 C   0  0  0  0  0  0  0  0  0  0  0  0
    2.2695   -1.0681    2.5788 O   0  0  0  0  0  0  0  0  0  0  0  0
    4.2782   -0.8292    1.5108 C   0  0  0  0  0  0  0  0  0  0  0  0
    4.9883   -0.4015    0.4613 C   0  0  0  0  0  0  0  0  0  0  0  0
    4.3296    0.1053   -0.8318 C   0  0  0  0  0  0  0  0  0  0  0  0
    4.7604   -0.9319   -1.9254 C   0  0  0  0  0  0  0  0  0  0  0  0
    6.2752   -1.2135   -1.9976 C   0  0  0  0  0  0  0  0  0  0  0  0
    6.9229   -1.5679   -0.6332 C   0  0  0  0  0  0  0  0  0  0  0  0
    6.5157   -0.5006    0.4221 C   0  0  0  0  0  0  0  0  0  0  0  0
    7.2462   -0.7231    1.7714 C   0  0  0  0  0  0  0  0  0  0  0  0
    8.7884   -0.7367    1.6248 C   0  0  0  0  0  0  0  0  0  0  0  0
    9.2155   -1.7358    0.5257 C   0  0  0  0  0  0  0  0  0  0  0  0
    8.4639   -1.5399   -0.7931 C   0  0  0  0  0  0  0  0  0  0  0  0
    9.4101   -1.1540    2.9718 C   0  0  0  0  0  0  0  0  0  0  0  0
    9.3099    0.6710    1.3319 C   0  0  0  0  0  0  0  0  0  0  0  0
    8.6923    1.7158    1.4539 O   0  0  0  0  0  0  0  0  0  0  0  0
   10.6013    0.7051    0.9510 O   0  0  0  0  0  0  0  0  0  0  0  0
    6.4754   -2.9989   -0.2368 C   0  0  0  0  0  0  0  0  0  0  0  0
    4.9241    1.5050   -1.1914 C   0  0  0  0  0  0  0  0  0  0  0  0
    2.1725    0.3063   -2.1939 C   0  0  0  0  0  0  0  0  0  0  0  0
   -1.8910    2.1670    1.2842 C   0  0  0  0  0  0  0  0  0  0  0  0
    0.0000    0.0000    0.0000 K   0  0  0  0  0 15  0  0  0  0  0  0
   -2.2527   -1.2095    1.8299 H   0  0  0  0  0  0  0  0  0  0  0  0
   -3.2773    0.1583    2.1729 H   0  0  0  0  0  0  0  0  0  0  0  0
   -1.7253    0.0085    2.9987 H   0  0  0  0  0  0  0  0  0  0  0  0
    0.3609    0.5110    1.9393 H   0  0  0  0  0  0  0  0  0  0  0  0
    0.5955    2.5607    0.7984 H   0  0  0  0  0  0  0  0  0  0  0  0
    0.2613    1.8716   -0.7659 H   0  0  0  0  0  0  0  0  0  0  0  0
    2.7453    1.6361    0.9644 H   0  0  0  0  0  0  0  0  0  0  0  0
    2.5650    2.4251   -0.5845 H   0  0  0  0  0  0  0  0  0  0  0  0
    2.3391   -1.8908   -0.3699 H   0  0  0  0  0  0  0  0  0  0  0  0
   -0.0781   -2.3012   -1.2952 H   0  0  0  0  0  0  0  0  0  0  0  0
    0.0403   -0.6626   -1.8355 H   0  0  0  0  0  0  0  0  0  0  0  0
   -2.2831   -1.7962   -0.2993 H   0  0  0  0  0  0  0  0  0  0  0  0
   -2.2275   -1.2239   -1.9315 H   0  0  0  0  0  0  0  0  0  0  0  0
   -1.7476    1.0584   -1.2236 H   0  0  0  0  0  0  0  0  0  0  0  0
   -3.4883    2.4333   -1.0279 H   0  0  0  0  0  0  0  0  0  0  0  0
   -5.5900    2.0652    0.1968 H   0  0  0  0  0  0  0  0  0  0  0  0
   -5.6388    3.8857   -1.3589 H   0  0  0  0  0  0  0  0  0  0  0  0
   -6.0987    3.6464   -3.7554 H   0  0  0  0  0  0  0  0  0  0  0  0
   -4.3297    1.9190   -4.5249 H   0  0  0  0  0  0  0  0  0  0  0  0
   -6.2934    0.8543   -3.5097 H   0  0  0  0  0  0  0  0  0  0  0  0
   -7.8820    2.2918   -1.9205 H   0  0  0  0  0  0  0  0  0  0  0  0
   -5.8936   -0.0766    0.7816 H   0  0  0  0  0  0  0  0  0  0  0  0
   -7.6670    1.7846    0.9641 H   0  0  0  0  0  0  0  0  0  0  0  0
   -7.4942    0.0845    2.7806 H   0  0  0  0  0  0  0  0  0  0  0  0
   -9.5636   -1.5070    1.1737 H   0  0  0  0  0  0  0  0  0  0  0  0
   -6.5811   -2.1218    1.6656 H   0  0  0  0  0  0  0  0  0  0  0  0
   -8.8642   -3.7390    0.5646 H   0  0  0  0  0  0  0  0  0  0  0  0
   -7.3451   -3.8021   -0.3439 H   0  0  0  0  0  0  0  0  0  0  0  0
   -7.2841   -5.3564    1.2195 H   0  0  0  0  0  0  0  0  0  0  0  0
   -9.5194   -1.4672    3.4918 H   0  0  0  0  0  0  0  0  0  0  0  0
   -9.1604    1.5333    2.9695 H   0  0  0  0  0  0  0  0  0  0  0  0
   -9.8019    1.1828    0.4098 H   0  0  0  0  0  0  0  0  0  0  0  0
   -0.8382   -2.5721    1.0522 H   0  0  0  0  0  0  0  0  0  0  0  0
    0.0868   -1.8025    2.3213 H   0  0  0  0  0  0  0  0  0  0  0  0
    0.8540   -2.9266    1.1845 H   0  0  0  0  0  0  0  0  0  0  0  0
    4.7273   -1.1738    2.4347 H   0  0  0  0  0  0  0  0  0  0  0  0
    4.2352   -1.8803   -1.7594 H   0  0  0  0  0  0  0  0  0  0  0  0
    4.4625   -0.5903   -2.9231 H   0  0  0  0  0  0  0  0  0  0  0  0
    6.7739   -0.3376   -2.4330 H   0  0  0  0  0  0  0  0  0  0  0  0
    6.4438   -2.0254   -2.7150 H   0  0  0  0  0  0  0  0  0  0  0  0
    6.8846    0.4726    0.0787 H   0  0  0  0  0  0  0  0  0  0  0  0
    6.9471    0.0665    2.4750 H   0  0  0  0  0  0  0  0  0  0  0  0
    6.9250   -1.6681    2.2244 H   0  0  0  0  0  0  0  0  0  0  0  0
   10.2913   -1.6590    0.3230 H   0  0  0  0  0  0  0  0  0  0  0  0
    9.0604   -2.7631    0.8811 H   0  0  0  0  0  0  0  0  0  0  0  0
    8.7701   -0.5813   -1.2307 H   0  0  0  0  0  0  0  0  0  0  0  0
    8.7790   -2.3134   -1.5025 H   0  0  0  0  0  0  0  0  0  0  0  0
    9.1595   -0.4373    3.7614 H   0  0  0  0  0  0  0  0  0  0  0  0
   10.5047   -1.2011    2.9104 H   0  0  0  0  0  0  0  0  0  0  0  0
    9.0534   -2.1399    3.2854 H   0  0  0  0  0  0  0  0  0  0  0  0
   10.7952    1.6580    0.8506 H   0  0  0  0  0  0  0  0  0  0  0  0
    5.3883   -3.0919   -0.1644 H   0  0  0  0  0  0  0  0  0  0  0  0
    6.8101   -3.7276   -0.9851 H   0  0  0  0  0  0  0  0  0  0  0  0
    6.8866   -3.3144    0.7247 H   0  0  0  0  0  0  0  0  0  0  0  0
    4.3880    1.9893   -2.0124 H   0  0  0  0  0  0  0  0  0  0  0  0
    5.9667    1.4646   -1.5167 H   0  0  0  0  0  0  0  0  0  0  0  0
    4.8916    2.1858   -0.3308 H   0  0  0  0  0  0  0  0  0  0  0  0
    1.2045    0.7983   -2.2845 H   0  0  0  0  0  0  0  0  0  0  0  0
    2.1055   -0.6940   -2.6361 H   0  0  0  0  0  0  0  0  0  0  0  0
    2.8174    0.9043   -2.8431 H   0  0  0  0  0  0  0  0  0  0  0  0
   -2.9670    2.3052    1.4471 H   0  0  0  0  0  0  0  0  0  0  0  0
   -1.3821    2.4668    2.2061 H   0  0  0  0  0  0  0  0  0  0  0  0
   -1.6054    2.8634    0.4888 H   0  0  0  0  0  0  0  0  0  0  0  0
  1  2  1  0
  2  3  1  0
  3  4  1  0
  4  5  1  0
  5  6  1  0
  6  7  1  0
  7  8  1  0
  8  9  1  0
  9 10  1  0
 10 11  1  0
 11 12  1  0
 12 13  1  0
 13 14  1  0
 14 15  1  0
 15 16  1  0
 16 17  1  0
 17 18  1  0
 17 19  1  0
 19 20  2  0
 19 21  1  0
 16 22  1  0
 15 23  1  0
 14 24  1  0
 24 25  1  0
 25 26  1  0
 26 27  1  0
 27 28  1  0
 28 29  1  0
 29 30  1  0
 29 31  1  0
 31 32  1  0
 28 33  1  0
 27 34  1  0
 26 35  1  0
  8 36  1  0
  7 37  1  0
 37 38  2  0
 37 39  1  0
 39 40  2  0
 40 41  1  0
 41 42  1  0
 42 43  1  0
 43 44  1  0
 44 45  1  0
 45 46  1  0
 46 47  1  0
 47 48  1  0
 48 49  1  0
 47 50  1  0
 47 51  1  0
 51 52  2  0
 51 53  1  0
 44 54  1  0
 41 55  1  0
  6 56  1  0
  2 57  1  0
 11  2  1  0
  8  3  1  0
 41  6  1  0
 18 13  1  0
 30 25  1  0
 45 40  1  0
 49 44  1  0
  1 59  1  0
  1 60  1  0
  1 61  1  0
  3 62  1  0
  4 63  1  0
  4 64  1  0
  5 65  1  0
  5 66  1  0
  7 67  1  0
  9 68  1  0
  9 69  1  0
 10 70  1  0
 10 71  1  0
 11 72  1  0
 13 73  1  0
 14 74  1  0
 15 75  1  0
 16 76  1  0
 17 77  1  0
 22 78  1  0
 23 79  1  0
 25 80  1  0
 26 81  1  0
 27 82  1  0
 28 83  1  0
 29 84  1  0
 31 85  1  0
 31 86  1  0
 32 87  1  0
 33 88  1  0
 34 89  1  0
 35 90  1  0
 36 91  1  0
 36 92  1  0
 36 93  1  0
 39 94  1  0
 42 95  1  0
 42 96  1  0
 43 97  1  0
 43 98  1  0
 45 99  1  0
 46100  1  0
 46101  1  0
 48102  1  0
 48103  1  0
 49104  1  0
 49105  1  0
 50106  1  0
 50107  1  0
 50108  1  0
 53109  1  0
 54110  1  0
 54111  1  0
 54112  1  0
 55113  1  0
 55114  1  0
 55115  1  0
 56116  1  0
 56117  1  0
 56118  1  0
 57119  1  0
 57120  1  0
 57121  1  0
M  CHG  2  21  -1  58   1
M  END
