
     RDKit          3D

 55 57  0  0  0  0  0  0  0  0999 V2000
    3.8711    3.6073   -0.6256 O   0  0  0  0  0  0  0  0  0  0  0  0
    5.1167    2.9865   -0.3028 C   0  0  0  0  0  0  0  0  0  0  0  0
    4.8982    1.4893   -0.0669 C   0  0  0  0  0  0  0  0  0  0  0  0
    3.8675    1.3517    0.9353 O   0  0  0  0  0  0  0  0  0  0  0  0
    3.5545   -0.0207    1.2320 C   0  0  0  0  0  0  0  0  0  0  0  0
    3.0294   -0.6988    0.0821 O   0  0  0  0  0  0  0  0  0  0  0  0
    1.6841   -0.9021    0.1904 C   0  0  0  0  0  0  0  0  0  0  0  0
    0.7892    0.1212   -0.1087 C   0  0  0  0  0  0  0  0  0  0  0  0
   -0.5894   -0.1145   -0.0179 C   0  0  0  0  0  0  0  0  0  0  0  0
   -1.4328    0.9223   -0.3053 O   0  0  0  0  0  0  0  0  0  0  0  0
   -1.0827   -1.3724    0.3746 C   0  0  0  0  0  0  0  0  0  0  0  0
   -0.1451   -2.3865    0.6551 C   0  0  0  0  0  0  0  0  0  0  0  0
    1.2270   -2.1629    0.5462 C   0  0  0  0  0  0  0  0  0  0  0  0
   -0.4915   -3.6549    1.0514 O   0  0  0  0  0  0  0  0  0  0  0  0
   -2.5410   -1.6976    0.5102 C   0  0  0  0  0  0  0  0  0  0  0  0
   -2.8407   -2.7528    1.0771 O   0  0  0  0  0  0  0  0  0  0  0  0
   -3.6011   -0.7680   -0.0480 C   0  0  0  0  0  0  0  0  0  0  0  0
   -4.9919   -1.4068    0.0129 C   0  0  0  0  0  0  0  0  0  0  0  0
   -6.0578   -0.4746   -0.5094 C   0  0  0  0  0  0  0  0  0  0  0  0
   -6.8751    0.2368    0.3814 C   0  0  0  0  0  0  0  0  0  0  0  0
   -7.8514    1.1147   -0.0955 C   0  0  0  0  0  0  0  0  0  0  0  0
   -8.0057    1.2851   -1.4663 C   0  0  0  0  0  0  0  0  0  0  0  0
   -7.2061    0.5865   -2.3661 C   0  0  0  0  0  0  0  0  0  0  0  0
   -6.2325   -0.2939   -1.8895 C   0  0  0  0  0  0  0  0  0  0  0  0
   -8.9414    2.1389   -1.9735 O   0  0  0  0  0  0  0  0  0  0  0  0
    4.7995   -0.7854    1.7331 C   0  0  0  0  0  0  0  0  0  0  0  0
    5.9316   -0.6627    0.7097 C   0  0  0  0  0  0  0  0  0  0  0  0
    6.2007    0.8097    0.3713 C   0  0  0  0  0  0  0  0  0  0  0  0
    7.1974    0.8837   -0.6521 O   0  0  0  0  0  0  0  0  0  0  0  0
    7.1411   -1.2375    1.2359 O   0  0  0  0  0  0  0  0  0  0  0  0
    5.2893   -0.2662    2.9871 O   0  0  0  0  0  0  0  0  0  0  0  0
    3.2706    3.3566    0.1004 H   0  0  0  0  0  0  0  0  0  0  0  0
    5.5007    3.4772    0.5980 H   0  0  0  0  0  0  0  0  0  0  0  0
    5.8115    3.1676   -1.1247 H   0  0  0  0  0  0  0  0  0  0  0  0
    4.5266    1.0584   -1.0053 H   0  0  0  0  0  0  0  0  0  0  0  0
    2.8260    0.0130    2.0561 H   0  0  0  0  0  0  0  0  0  0  0  0
    1.1783    1.0935   -0.4034 H   0  0  0  0  0  0  0  0  0  0  0  0
   -0.9323    1.6550   -0.7136 H   0  0  0  0  0  0  0  0  0  0  0  0
    1.9242   -2.9697    0.7487 H   0  0  0  0  0  0  0  0  0  0  0  0
   -1.4643   -3.6743    1.2082 H   0  0  0  0  0  0  0  0  0  0  0  0
   -3.3548   -0.5384   -1.0920 H   0  0  0  0  0  0  0  0  0  0  0  0
   -3.6080    0.1530    0.5455 H   0  0  0  0  0  0  0  0  0  0  0  0
   -5.2288   -1.6886    1.0466 H   0  0  0  0  0  0  0  0  0  0  0  0
   -5.0157   -2.3435   -0.5640 H   0  0  0  0  0  0  0  0  0  0  0  0
   -6.7546    0.1119    1.4567 H   0  0  0  0  0  0  0  0  0  0  0  0
   -8.4728    1.6534    0.6143 H   0  0  0  0  0  0  0  0  0  0  0  0
   -7.3382    0.7285   -3.4344 H   0  0  0  0  0  0  0  0  0  0  0  0
   -5.6107   -0.8354   -2.6014 H   0  0  0  0  0  0  0  0  0  0  0  0
   -9.4289    2.5345   -1.2332 H   0  0  0  0  0  0  0  0  0  0  0  0
    4.5679   -1.8467    1.8965 H   0  0  0  0  0  0  0  0  0  0  0  0
    5.6945   -1.2189   -0.2051 H   0  0  0  0  0  0  0  0  0  0  0  0
    6.6145    1.3159    1.2525 H   0  0  0  0  0  0  0  0  0  0  0  0
    7.8606    0.2009   -0.4199 H   0  0  0  0  0  0  0  0  0  0  0  0
    7.1631   -0.9706    2.1790 H   0  0  0  0  0  0  0  0  0  0  0  0
    4.5594   -0.3085    3.6318 H   0  0  0  0  0  0  0  0  0  0  0  0
  1  2  1  0
  2  3  1  0
  3  4  1  0
  4  5  1  0
  5  6  1  0
  6  7  1  0
  7  8  2  0
  8  9  1  0
  9 10  1  0
  9 11  2  0
 11 12  1  0
 12 13  2  0
 12 14  1  0
 11 15  1  0
 15 16  2  0
 15 17  1  0
 17 18  1  0
 18 19  1  0
 19 20  2  0
 20 21  1  0
 21 22  2  0
 22 23  1  0
 23 24  2  0
 22 25  1  0
  5 26  1  0
 26 27  1  0
 27 28  1  0
 28 29  1  0
 27 30  1  0
 26 31  1  0
 28  3  1  0
 13  7  1  0
 24 19  1  0
  1 32  1  0
  2 33  1  0
  2 34  1  0
  3 35  1  0
  5 36  1  0
  8 37  1  0
 10 38  1  0
 13 39  1  0
 14 40  1  0
 17 41  1  0
 17 42  1  0
 18 43  1  0
 18 44  1  0
 20 45  1  0
 21 46  1  0
 23 47  1  0
 24 48  1  0
 25 49  1  0
 26 50  1  0
 27 51  1  0
 28 52  1  0
 29 53  1  0
 30 54  1  0
 31 55  1  0
M  END
