
     RDKit          3D

105108  0  0  0  0  0  0  0  0999 V2000
   -5.9964   -1.3805    2.1872 O   0  0  0  0  0  0  0  0  0  0  0  0
   -4.8509   -1.8509    2.7102 C   0  0  0  0  0  0  0  0  0  0  0  0
   -4.7304   -2.0301    3.9126 O   0  0  0  0  0  0  0  0  0  0  0  0
   -3.7958   -2.0307    1.6448 C   0  0  0  0  0  0  0  0  0  0  0  0
   -2.6961   -3.0141    2.0649 C   0  0  0  0  0  0  0  0  0  0  0  0
   -1.6139   -3.4219    0.9821 C   0  0  0  0  0  0  0  0  0  0  0  0
   -0.4614   -4.0320    1.8384 C   0  0  0  0  0  0  0  0  0  0  0  0
   -2.1542   -4.5746    0.0317 C   0  0  0  0  0  0  0  0  0  0  0  0
   -1.2355   -4.8058   -1.1957 C   0  0  0  0  0  0  0  0  0  0  0  0
   -0.8540   -3.5373   -1.9697 C   0  0  0  0  0  0  0  0  0  0  0  0
   -0.2298   -2.4034   -1.1086 C   0  0  0  0  0  0  0  0  0  0  0  0
   -1.1241   -2.1537    0.1601 C   0  0  0  0  0  0  0  0  0  0  0  0
   -0.4794   -1.0475    1.0346 C   0  0  0  0  0  0  0  0  0  0  0  0
   -0.2866    0.2973    0.3228 C   0  0  0  0  0  0  0  0  0  0  0  0
   -1.5852    0.9041    0.2493 O   0  0  0  0  0  0  0  0  0  0  0  0
   -1.5963    2.2942    0.6114 C   0  0  0  0  0  0  0  0  0  0  0  0
   -0.8394    3.0807   -0.3030 O   0  0  0  0  0  0  0  0  0  0  0  0
   -0.9178    4.5027   -0.0763 C   0  0  0  0  0  0  0  0  0  0  0  0
   -0.1213    4.9219    1.1676 C   0  0  0  0  0  0  0  0  0  0  0  0
   -2.3793    4.9961   -0.0744 C   0  0  0  0  0  0  0  0  0  0  0  0
   -3.2351    4.1820    0.8949 C   0  0  0  0  0  0  0  0  0  0  0  0
   -3.0860    2.6903    0.6045 C   0  0  0  0  0  0  0  0  0  0  0  0
   -3.8330    1.9639    1.5965 O   0  0  0  0  0  0  0  0  0  0  0  0
   -4.6082    4.5953    0.7653 O   0  0  0  0  0  0  0  0  0  0  0  0
   -2.4702    6.3869    0.2633 O   0  0  0  0  0  0  0  0  0  0  0  0
    0.3148    0.2277   -1.0885 C   0  0  0  0  0  0  0  0  0  0  0  0
   -0.1753   -1.0064   -1.9298 C   0  0  0  0  0  0  0  0  0  0  0  0
   -1.5517   -0.6357   -2.5620 C   0  0  0  0  0  0  0  0  0  0  0  0
    0.8360   -1.0252   -3.0903 C   0  0  0  0  0  0  0  0  0  0  0  0
    2.1122   -0.3448   -2.6093 C   0  0  0  0  0  0  0  0  0  0  0  0
    1.8693    0.2360   -1.1976 C   0  0  0  0  0  0  0  0  0  0  0  0
    2.6092    1.6179   -0.9954 C   0  0  0  0  0  0  0  0  0  0  0  0
    4.1043    1.5040   -1.4402 C   0  0  0  0  0  0  0  0  0  0  0  0
    4.8799    2.7945   -1.3432 C   0  0  0  0  0  0  0  0  0  0  0  0
    5.9147    3.1077   -0.5406 C   0  0  0  0  0  0  0  0  0  0  0  0
    6.5799    2.3278    0.5686 C   0  0  0  0  0  0  0  0  0  0  0  0
    5.7078    1.3143    1.0604 O   0  0  0  0  0  0  0  0  0  0  0  0
    7.8672    1.6496    0.0844 C   0  0  0  0  0  0  0  0  0  0  0  0
    6.8766    3.2785    1.7358 C   0  0  0  0  0  0  0  0  0  0  0  0
    1.9675    2.6125   -1.8132 O   0  0  0  0  0  0  0  0  0  0  0  0
    2.5560    2.0823    0.4631 C   0  0  0  0  0  0  0  0  0  0  0  0
    1.1957   -2.9040   -0.7305 C   0  0  0  0  0  0  0  0  0  0  0  0
   -3.6489   -4.6033   -0.3378 C   0  0  0  0  0  0  0  0  0  0  0  0
   -4.2276   -3.9488   -1.3640 C   0  0  0  0  0  0  0  0  0  0  0  0
   -4.5099   -5.5464    0.4757 C   0  0  0  0  0  0  0  0  0  0  0  0
   -6.5945   -1.1904    2.9488 H   0  0  0  0  0  0  0  0  0  0  0  0
   -3.3776   -1.0375    1.4606 H   0  0  0  0  0  0  0  0  0  0  0  0
   -4.3039   -2.3680    0.7385 H   0  0  0  0  0  0  0  0  0  0  0  0
   -2.1900   -2.5524    2.9271 H   0  0  0  0  0  0  0  0  0  0  0  0
   -3.1571   -3.9237    2.4764 H   0  0  0  0  0  0  0  0  0  0  0  0
   -0.8543   -4.7634    2.5611 H   0  0  0  0  0  0  0  0  0  0  0  0
    0.2712   -4.5695    1.2459 H   0  0  0  0  0  0  0  0  0  0  0  0
    0.0709   -3.2749    2.4250 H   0  0  0  0  0  0  0  0  0  0  0  0
   -2.0287   -5.5087    0.6032 H   0  0  0  0  0  0  0  0  0  0  0  0
   -1.7052   -5.5144   -1.8926 H   0  0  0  0  0  0  0  0  0  0  0  0
   -0.3249   -5.3190   -0.8596 H   0  0  0  0  0  0  0  0  0  0  0  0
   -0.1613   -3.8288   -2.7670 H   0  0  0  0  0  0  0  0  0  0  0  0
   -1.7409   -3.1810   -2.4818 H   0  0  0  0  0  0  0  0  0  0  0  0
   -2.0585   -1.7312   -0.2184 H   0  0  0  0  0  0  0  0  0  0  0  0
    0.4895   -1.3648    1.4286 H   0  0  0  0  0  0  0  0  0  0  0  0
   -1.1032   -0.8686    1.9163 H   0  0  0  0  0  0  0  0  0  0  0  0
    0.3366    0.8890    0.9910 H   0  0  0  0  0  0  0  0  0  0  0  0
   -1.1969    2.3750    1.6322 H   0  0  0  0  0  0  0  0  0  0  0  0
   -0.4199    4.9810   -0.9311 H   0  0  0  0  0  0  0  0  0  0  0  0
   -0.0888    6.0120    1.2535 H   0  0  0  0  0  0  0  0  0  0  0  0
    0.9070    4.5641    1.1015 H   0  0  0  0  0  0  0  0  0  0  0  0
   -0.5529    4.5232    2.0882 H   0  0  0  0  0  0  0  0  0  0  0  0
   -2.8000    4.8905   -1.0853 H   0  0  0  0  0  0  0  0  0  0  0  0
   -2.9754    4.4067    1.9393 H   0  0  0  0  0  0  0  0  0  0  0  0
   -3.5435    2.4376   -0.3599 H   0  0  0  0  0  0  0  0  0  0  0  0
   -3.2816    1.1834    1.8217 H   0  0  0  0  0  0  0  0  0  0  0  0
   -5.1478    3.8757    1.1419 H   0  0  0  0  0  0  0  0  0  0  0  0
   -3.4057    6.5180    0.5233 H   0  0  0  0  0  0  0  0  0  0  0  0
   -0.0299    1.1184   -1.6263 H   0  0  0  0  0  0  0  0  0  0  0  0
   -1.8236   -1.3264   -3.3624 H   0  0  0  0  0  0  0  0  0  0  0  0
   -2.3678   -0.6078   -1.8375 H   0  0  0  0  0  0  0  0  0  0  0  0
   -1.5267    0.3621   -3.0185 H   0  0  0  0  0  0  0  0  0  0  0  0
    1.0382   -2.0274   -3.4824 H   0  0  0  0  0  0  0  0  0  0  0  0
    0.4553   -0.4511   -3.9425 H   0  0  0  0  0  0  0  0  0  0  0  0
    2.3766    0.4389   -3.3357 H   0  0  0  0  0  0  0  0  0  0  0  0
    2.9533   -1.0418   -2.5993 H   0  0  0  0  0  0  0  0  0  0  0  0
    2.2907   -0.4586   -0.4634 H   0  0  0  0  0  0  0  0  0  0  0  0
    4.5870    0.6877   -0.8959 H   0  0  0  0  0  0  0  0  0  0  0  0
    4.1568    1.2262   -2.4994 H   0  0  0  0  0  0  0  0  0  0  0  0
    4.5440    3.5479   -2.0630 H   0  0  0  0  0  0  0  0  0  0  0  0
    6.3416    4.0977   -0.7060 H   0  0  0  0  0  0  0  0  0  0  0  0
    6.1298    0.9281    1.8397 H   0  0  0  0  0  0  0  0  0  0  0  0
    8.6398    2.3921   -0.1364 H   0  0  0  0  0  0  0  0  0  0  0  0
    8.2490    0.9512    0.8381 H   0  0  0  0  0  0  0  0  0  0  0  0
    7.6970    1.0575   -0.8241 H   0  0  0  0  0  0  0  0  0  0  0  0
    5.9530    3.7202    2.1264 H   0  0  0  0  0  0  0  0  0  0  0  0
    7.3263    2.7313    2.5674 H   0  0  0  0  0  0  0  0  0  0  0  0
    7.5522    4.0850    1.4422 H   0  0  0  0  0  0  0  0  0  0  0  0
    1.1092    2.8486   -1.4001 H   0  0  0  0  0  0  0  0  0  0  0  0
    2.8665    1.2910    1.1539 H   0  0  0  0  0  0  0  0  0  0  0  0
    3.1962    2.9540    0.6337 H   0  0  0  0  0  0  0  0  0  0  0  0
    1.5617    2.4279    0.7364 H   0  0  0  0  0  0  0  0  0  0  0  0
    1.8839   -2.8754   -1.5678 H   0  0  0  0  0  0  0  0  0  0  0  0
    1.2122   -3.9462   -0.4213 H   0  0  0  0  0  0  0  0  0  0  0  0
    1.6544   -2.3514    0.0808 H   0  0  0  0  0  0  0  0  0  0  0  0
   -5.2885   -4.0550   -1.5835 H   0  0  0  0  0  0  0  0  0  0  0  0
   -3.7037   -3.2683   -2.0080 H   0  0  0  0  0  0  0  0  0  0  0  0
   -5.4906   -5.7280    0.0121 H   0  0  0  0  0  0  0  0  0  0  0  0
   -4.6846   -5.1396    1.4746 H   0  0  0  0  0  0  0  0  0  0  0  0
   -4.0193   -6.5200    0.5805 H   0  0  0  0  0  0  0  0  0  0  0  0
  1  2  1  0
  2  3  2  0
  2  4  1  0
  4  5  1  0
  5  6  1  0
  6  7  1  0
  6  8  1  0
  8  9  1  0
  9 10  1  0
 10 11  1  0
 11 12  1  0
 12 13  1  0
 13 14  1  0
 14 15  1  0
 15 16  1  0
 16 17  1  0
 17 18  1  0
 18 19  1  0
 18 20  1  0
 20 21  1  0
 21 22  1  0
 22 23  1  0
 21 24  1  0
 20 25  1  0
 14 26  1  0
 26 27  1  0
 27 28  1  0
 27 29  1  0
 29 30  1  0
 30 31  1  0
 31 32  1  0
 32 33  1  0
 33 34  1  0
 34 35  2  3
 35 36  1  0
 36 37  1  0
 36 38  1  0
 36 39  1  0
 32 40  1  0
 32 41  1  0
 11 42  1  0
  8 43  1  0
 43 44  2  0
 43 45  1  0
 12  6  1  0
 22 16  1  0
 31 26  1  0
 27 11  1  0
  1 46  1  0
  4 47  1  0
  4 48  1  0
  5 49  1  0
  5 50  1  0
  7 51  1  0
  7 52  1  0
  7 53  1  0
  8 54  1  0
  9 55  1  0
  9 56  1  0
 10 57  1  0
 10 58  1  0
 12 59  1  0
 13 60  1  0
 13 61  1  0
 14 62  1  0
 16 63  1  0
 18 64  1  0
 19 65  1  0
 19 66  1  0
 19 67  1  0
 20 68  1  0
 21 69  1  0
 22 70  1  0
 23 71  1  0
 24 72  1  0
 25 73  1  0
 26 74  1  0
 28 75  1  0
 28 76  1  0
 28 77  1  0
 29 78  1  0
 29 79  1  0
 30 80  1  0
 30 81  1  0
 31 82  1  0
 33 83  1  0
 33 84  1  0
 34 85  1  0
 35 86  1  0
 37 87  1  0
 38 88  1  0
 38 89  1  0
 38 90  1  0
 39 91  1  0
 39 92  1  0
 39 93  1  0
 40 94  1  0
 41 95  1  0
 41 96  1  0
 41 97  1  0
 42 98  1  0
 42 99  1  0
 42100  1  0
 44101  1  0
 44102  1  0
 45103  1  0
 45104  1  0
 45105  1  0
M  END
