
     RDKit          3D

102105  0  0  0  0  0  0  0  0999 V2000
   -6.2494   -2.8527    3.6798 O   0  0  0  0  0  0  0  0  0  0  0  0
   -4.9317   -2.8245    3.3924 C   0  0  0  0  0  0  0  0  0  0  0  0
   -4.3060   -3.8623    3.2679 O   0  0  0  0  0  0  0  0  0  0  0  0
   -4.4020   -1.4158    3.3006 C   0  0  0  0  0  0  0  0  0  0  0  0
   -3.1649   -1.2860    2.3965 C   0  0  0  0  0  0  0  0  0  0  0  0
   -3.3949   -0.8679    0.8952 C   0  0  0  0  0  0  0  0  0  0  0  0
   -4.0419    0.5563    0.9549 C   0  0  0  0  0  0  0  0  0  0  0  0
   -4.3806   -1.8560    0.1459 C   0  0  0  0  0  0  0  0  0  0  0  0
   -3.7006   -3.1554   -0.3294 C   0  0  0  0  0  0  0  0  0  0  0  0
   -2.4393   -2.9243   -1.1618 C   0  0  0  0  0  0  0  0  0  0  0  0
   -1.3543   -2.0947   -0.4338 C   0  0  0  0  0  0  0  0  0  0  0  0
   -2.0104   -0.7546    0.1150 C   0  0  0  0  0  0  0  0  0  0  0  0
   -0.9579    0.1422    0.8223 C   0  0  0  0  0  0  0  0  0  0  0  0
    0.2377    0.5051   -0.0825 C   0  0  0  0  0  0  0  0  0  0  0  0
   -0.2045    1.3597   -1.1393 O   0  0  0  0  0  0  0  0  0  0  0  0
   -0.0163    2.7473   -0.8439 C   0  0  0  0  0  0  0  0  0  0  0  0
    1.3015    3.1261   -1.2285 O   0  0  0  0  0  0  0  0  0  0  0  0
    1.6113    4.4733   -0.8372 C   0  0  0  0  0  0  0  0  0  0  0  0
    0.3999    5.4303   -0.7621 C   0  0  0  0  0  0  0  0  0  0  0  0
   -0.6624    5.0379   -1.7857 C   0  0  0  0  0  0  0  0  0  0  0  0
   -1.0388    3.5454   -1.6831 C   0  0  0  0  0  0  0  0  0  0  0  0
   -1.1405    3.0181   -3.0274 O   0  0  0  0  0  0  0  0  0  0  0  0
   -0.1967    5.3640   -3.1017 O   0  0  0  0  0  0  0  0  0  0  0  0
   -0.1734    5.3692    0.5513 O   0  0  0  0  0  0  0  0  0  0  0  0
    0.8506   -0.7703   -0.6562 C   0  0  0  0  0  0  0  0  0  0  0  0
   -0.1608   -1.6773   -1.4261 C   0  0  0  0  0  0  0  0  0  0  0  0
   -0.7021   -1.0474   -2.7458 C   0  0  0  0  0  0  0  0  0  0  0  0
    0.8297   -2.7809   -1.8734 C   0  0  0  0  0  0  0  0  0  0  0  0
    2.1212   -2.0306   -2.2801 C   0  0  0  0  0  0  0  0  0  0  0  0
    2.0573   -0.6336   -1.6088 C   0  0  0  0  0  0  0  0  0  0  0  0
    3.3911   -0.1211   -0.9880 C   0  0  0  0  0  0  0  0  0  0  0  0
    3.8525   -0.9457    0.2466 C   0  0  0  0  0  0  0  0  0  0  0  0
    5.1983   -0.5496    0.8079 C   0  0  0  0  0  0  0  0  0  0  0  0
    5.3563    0.4491    1.7000 C   0  0  0  0  0  0  0  0  0  0  0  0
    6.6345    0.9814    2.2932 C   0  0  0  0  0  0  0  0  0  0  0  0
    6.6908    2.3675    1.9499 O   0  0  0  0  0  0  0  0  0  0  0  0
    7.9197    0.3327    1.7739 C   0  0  0  0  0  0  0  0  0  0  0  0
    6.5814    0.9005    3.8200 C   0  0  0  0  0  0  0  0  0  0  0  0
    3.1915    1.2252   -0.5278 O   0  0  0  0  0  0  0  0  0  0  0  0
    4.4827   -0.0605   -2.0690 C   0  0  0  0  0  0  0  0  0  0  0  0
   -0.8074   -3.0017    0.7038 C   0  0  0  0  0  0  0  0  0  0  0  0
   -5.2784   -1.2967   -0.9751 C   0  0  0  0  0  0  0  0  0  0  0  0
   -4.8650   -0.6092   -2.0504 C   0  0  0  0  0  0  0  0  0  0  0  0
   -6.7528   -1.5819   -0.8024 C   0  0  0  0  0  0  0  0  0  0  0  0
   -6.4633   -3.8093    3.7330 H   0  0  0  0  0  0  0  0  0  0  0  0
   -5.2055   -0.7463    2.9866 H   0  0  0  0  0  0  0  0  0  0  0  0
   -4.1251   -1.1318    4.3242 H   0  0  0  0  0  0  0  0  0  0  0  0
   -2.5372   -0.5178    2.8663 H   0  0  0  0  0  0  0  0  0  0  0  0
   -2.5934   -2.2053    2.4657 H   0  0  0  0  0  0  0  0  0  0  0  0
   -3.5541    1.1965    1.6997 H   0  0  0  0  0  0  0  0  0  0  0  0
   -5.1019    0.5124    1.2264 H   0  0  0  0  0  0  0  0  0  0  0  0
   -3.9717    1.0807   -0.0037 H   0  0  0  0  0  0  0  0  0  0  0  0
   -5.1009   -2.1805    0.9041 H   0  0  0  0  0  0  0  0  0  0  0  0
   -3.4712   -3.7853    0.5359 H   0  0  0  0  0  0  0  0  0  0  0  0
   -4.4063   -3.7504   -0.9268 H   0  0  0  0  0  0  0  0  0  0  0  0
   -2.7428   -2.4471   -2.0932 H   0  0  0  0  0  0  0  0  0  0  0  0
   -2.0271   -3.8960   -1.4632 H   0  0  0  0  0  0  0  0  0  0  0  0
   -2.2866   -0.1843   -0.7749 H   0  0  0  0  0  0  0  0  0  0  0  0
   -0.5813   -0.3546    1.7219 H   0  0  0  0  0  0  0  0  0  0  0  0
   -1.4282    1.0749    1.1499 H   0  0  0  0  0  0  0  0  0  0  0  0
    0.9836    1.0174    0.5342 H   0  0  0  0  0  0  0  0  0  0  0  0
   -0.1676    2.9320    0.2264 H   0  0  0  0  0  0  0  0  0  0  0  0
    2.3273    4.8442   -1.5786 H   0  0  0  0  0  0  0  0  0  0  0  0
    2.1261    4.4239    0.1300 H   0  0  0  0  0  0  0  0  0  0  0  0
    0.7582    6.4542   -0.9185 H   0  0  0  0  0  0  0  0  0  0  0  0
   -1.5737    5.6287   -1.6206 H   0  0  0  0  0  0  0  0  0  0  0  0
   -2.0300    3.4225   -1.2252 H   0  0  0  0  0  0  0  0  0  0  0  0
   -0.8339    2.0867   -2.9521 H   0  0  0  0  0  0  0  0  0  0  0  0
   -0.5136    4.6267   -3.6685 H   0  0  0  0  0  0  0  0  0  0  0  0
   -0.6735    6.1975    0.6830 H   0  0  0  0  0  0  0  0  0  0  0  0
    1.2117   -1.3384    0.2098 H   0  0  0  0  0  0  0  0  0  0  0  0
   -1.1614   -1.8163   -3.3825 H   0  0  0  0  0  0  0  0  0  0  0  0
    0.0791   -0.5929   -3.3659 H   0  0  0  0  0  0  0  0  0  0  0  0
   -1.4524   -0.2718   -2.5891 H   0  0  0  0  0  0  0  0  0  0  0  0
    0.4472   -3.3978   -2.6929 H   0  0  0  0  0  0  0  0  0  0  0  0
    1.0972   -3.4609   -1.0579 H   0  0  0  0  0  0  0  0  0  0  0  0
    2.9987   -2.6167   -1.9829 H   0  0  0  0  0  0  0  0  0  0  0  0
    2.1692   -1.9170   -3.3706 H   0  0  0  0  0  0  0  0  0  0  0  0
    1.7890    0.0957   -2.3842 H   0  0  0  0  0  0  0  0  0  0  0  0
    3.1179   -0.8400    1.0555 H   0  0  0  0  0  0  0  0  0  0  0  0
    3.8942   -2.0150    0.0071 H   0  0  0  0  0  0  0  0  0  0  0  0
    6.0527   -1.1059    0.4282 H   0  0  0  0  0  0  0  0  0  0  0  0
    4.4569    0.9851    2.0163 H   0  0  0  0  0  0  0  0  0  0  0  0
    6.4698    2.4279    1.0018 H   0  0  0  0  0  0  0  0  0  0  0  0
    8.0032    0.4340    0.6842 H   0  0  0  0  0  0  0  0  0  0  0  0
    8.7982    0.8336    2.1947 H   0  0  0  0  0  0  0  0  0  0  0  0
    7.9702   -0.7294    2.0297 H   0  0  0  0  0  0  0  0  0  0  0  0
    5.7140    1.4447    4.2155 H   0  0  0  0  0  0  0  0  0  0  0  0
    7.4700    1.3681    4.2601 H   0  0  0  0  0  0  0  0  0  0  0  0
    6.5277   -0.1357    4.1683 H   0  0  0  0  0  0  0  0  0  0  0  0
    2.6606    1.7206   -1.1843 H   0  0  0  0  0  0  0  0  0  0  0  0
    5.3665    0.4793   -1.7198 H   0  0  0  0  0  0  0  0  0  0  0  0
    4.7948   -1.0558   -2.3927 H   0  0  0  0  0  0  0  0  0  0  0  0
    4.1294    0.4936   -2.9453 H   0  0  0  0  0  0  0  0  0  0  0  0
   -0.0858   -2.5017    1.3504 H   0  0  0  0  0  0  0  0  0  0  0  0
   -1.5825   -3.4019    1.3496 H   0  0  0  0  0  0  0  0  0  0  0  0
   -0.3262   -3.8975    0.3084 H   0  0  0  0  0  0  0  0  0  0  0  0
   -5.5664   -0.2562   -2.8000 H   0  0  0  0  0  0  0  0  0  0  0  0
   -3.8260   -0.3813   -2.2421 H   0  0  0  0  0  0  0  0  0  0  0  0
   -6.9229   -2.6613   -0.7454 H   0  0  0  0  0  0  0  0  0  0  0  0
   -7.1248   -1.1149    0.1168 H   0  0  0  0  0  0  0  0  0  0  0  0
   -7.3510   -1.1945   -1.6351 H   0  0  0  0  0  0  0  0  0  0  0  0
  1  2  1  0
  2  3  2  0
  2  4  1  0
  4  5  1  0
  5  6  1  0
  6  7  1  0
  6  8  1  0
  8  9  1  0
  9 10  1  0
 10 11  1  0
 11 12  1  0
 12 13  1  0
 13 14  1  0
 14 15  1  0
 15 16  1  0
 16 17  1  0
 17 18  1  0
 18 19  1  0
 19 20  1  0
 20 21  1  0
 21 22  1  0
 20 23  1  0
 19 24  1  0
 14 25  1  0
 25 26  1  0
 26 27  1  0
 26 28  1  0
 28 29  1  0
 29 30  1  0
 30 31  1  0
 31 32  1  0
 32 33  1  0
 33 34  2  3
 34 35  1  0
 35 36  1  0
 35 37  1  0
 35 38  1  0
 31 39  1  0
 31 40  1  0
 11 41  1  0
  8 42  1  0
 42 43  2  0
 42 44  1  0
 12  6  1  0
 21 16  1  0
 30 25  1  0
 26 11  1  0
  1 45  1  0
  4 46  1  0
  4 47  1  0
  5 48  1  0
  5 49  1  0
  7 50  1  0
  7 51  1  0
  7 52  1  0
  8 53  1  0
  9 54  1  0
  9 55  1  0
 10 56  1  0
 10 57  1  0
 12 58  1  0
 13 59  1  0
 13 60  1  0
 14 61  1  0
 16 62  1  0
 18 63  1  0
 18 64  1  0
 19 65  1  0
 20 66  1  0
 21 67  1  0
 22 68  1  0
 23 69  1  0
 24 70  1  0
 25 71  1  0
 27 72  1  0
 27 73  1  0
 27 74  1  0
 28 75  1  0
 28 76  1  0
 29 77  1  0
 29 78  1  0
 30 79  1  0
 32 80  1  0
 32 81  1  0
 33 82  1  0
 34 83  1  0
 36 84  1  0
 37 85  1  0
 37 86  1  0
 37 87  1  0
 38 88  1  0
 38 89  1  0
 38 90  1  0
 39 91  1  0
 40 92  1  0
 40 93  1  0
 40 94  1  0
 41 95  1  0
 41 96  1  0
 41 97  1  0
 43 98  1  0
 43 99  1  0
 44100  1  0
 44101  1  0
 44102  1  0
M  END
