
     RDKit          3D

130137  0  0  0  0  0  0  0  0999 V2000
   -4.8094   -0.6697    6.0315 O   0  0  0  0  0  0  0  0  0  0  0  0
   -4.1508    0.0641    5.0037 C   0  0  0  0  0  0  0  0  0  0  0  0
   -4.0723   -0.7134    3.6781 C   0  0  0  0  0  0  0  0  0  0  0  0
   -3.2317    0.0022    2.7725 O   0  0  0  0  0  0  0  0  0  0  0  0
   -3.0877   -0.6602    1.5115 C   0  0  0  0  0  0  0  0  0  0  0  0
   -2.1548    0.0617    0.7185 O   0  0  0  0  0  0  0  0  0  0  0  0
   -0.7874   -0.3198    0.7868 C   0  0  0  0  0  0  0  0  0  0  0  0
   -0.2903   -0.9562    2.0990 C   0  0  0  0  0  0  0  0  0  0  0  0
    1.1901   -0.6889    2.3996 C   0  0  0  0  0  0  0  0  0  0  0  0
    2.0786   -0.5772    1.1403 C   0  0  0  0  0  0  0  0  0  0  0  0
    1.3966    0.2858    0.0114 C   0  0  0  0  0  0  0  0  0  0  0  0
    0.0745    0.9193    0.4976 C   0  0  0  0  0  0  0  0  0  0  0  0
    0.8268   -0.6616   -1.0720 C   0  0  0  0  0  0  0  0  0  0  0  0
   -0.4397   -1.1810   -0.4279 C   0  0  0  0  0  0  0  0  0  0  0  0
   -1.1240   -2.2278   -0.9143 C   0  0  0  0  0  0  0  0  0  0  0  0
    2.3148    1.3441   -0.5929 C   0  0  0  0  0  0  0  0  0  0  0  0
    3.7110    0.8417   -0.9412 C   0  0  0  0  0  0  0  0  0  0  0  0
    4.3571   -0.1155    0.0856 C   0  0  0  0  0  0  0  0  0  0  0  0
    3.5804   -0.1985    1.4428 C   0  0  0  0  0  0  0  0  0  0  0  0
    4.1913   -1.3418    2.3106 C   0  0  0  0  0  0  0  0  0  0  0  0
    3.7361    1.1220    2.2524 C   0  0  0  0  0  0  0  0  0  0  0  0
    4.8548    2.0592    1.7827 C   0  0  0  0  0  0  0  0  0  0  0  0
    6.1135    1.3719    1.2624 C   0  0  0  0  0  0  0  0  0  0  0  0
    5.8633    0.1697    0.3409 C   0  0  0  0  0  0  0  0  0  0  0  0
    6.7422    0.2248   -0.9073 C   0  0  0  0  0  0  0  0  0  0  0  0
    6.3579    0.3645   -2.0568 O   0  0  0  0  0  0  0  0  0  0  0  0
    8.0375    0.0306   -0.5434 O   0  0  0  0  0  0  0  0  0  0  0  0
    8.9820    0.0676   -1.6204 C   0  0  0  0  0  0  0  0  0  0  0  0
   10.1906   -0.5888   -1.1987 O   0  0  0  0  0  0  0  0  0  0  0  0
   11.0579   -0.8752   -2.3136 C   0  0  0  0  0  0  0  0  0  0  0  0
   12.4237   -1.2761   -1.7490 C   0  0  0  0  0  0  0  0  0  0  0  0
   13.2608   -1.7438   -2.7984 O   0  0  0  0  0  0  0  0  0  0  0  0
   11.1787    0.3269   -3.2805 C   0  0  0  0  0  0  0  0  0  0  0  0
   10.7544    1.6094   -2.5653 C   0  0  0  0  0  0  0  0  0  0  0  0
    9.3053    1.5175   -2.0542 C   0  0  0  0  0  0  0  0  0  0  0  0
    9.1673    2.4753   -0.9829 O   0  0  0  0  0  0  0  0  0  0  0  0
   10.8630    2.7396   -3.4480 O   0  0  0  0  0  0  0  0  0  0  0  0
   10.2855    0.1626   -4.3997 O   0  0  0  0  0  0  0  0  0  0  0  0
   -4.4690   -0.7189    0.7973 C   0  0  0  0  0  0  0  0  0  0  0  0
   -5.3913   -1.5684    1.7001 C   0  0  0  0  0  0  0  0  0  0  0  0
   -5.4794   -0.9214    3.0921 C   0  0  0  0  0  0  0  0  0  0  0  0
   -6.2501   -1.7691    3.9600 O   0  0  0  0  0  0  0  0  0  0  0  0
   -6.7482   -1.6877    1.2292 O   0  0  0  0  0  0  0  0  0  0  0  0
   -6.9459   -2.6974    0.2363 C   0  0  0  0  0  0  0  0  0  0  0  0
   -6.4756   -2.2834   -1.0493 O   0  0  0  0  0  0  0  0  0  0  0  0
   -7.3702   -1.3651   -1.6858 C   0  0  0  0  0  0  0  0  0  0  0  0
   -6.7283   -0.8283   -2.9747 C   0  0  0  0  0  0  0  0  0  0  0  0
   -7.5131    0.1759   -3.6125 O   0  0  0  0  0  0  0  0  0  0  0  0
   -8.7143   -2.0390   -2.0203 C   0  0  0  0  0  0  0  0  0  0  0  0
   -8.9434   -3.2983   -1.1803 C   0  0  0  0  0  0  0  0  0  0  0  0
   -8.4519   -3.0730    0.2435 C   0  0  0  0  0  0  0  0  0  0  0  0
   -8.6834   -4.2758    1.0027 O   0  0  0  0  0  0  0  0  0  0  0  0
  -10.3473   -3.6067   -1.1770 O   0  0  0  0  0  0  0  0  0  0  0  0
   -9.7685   -1.0940   -1.7869 O   0  0  0  0  0  0  0  0  0  0  0  0
   -5.0662    0.5874    0.6556 O   0  0  0  0  0  0  0  0  0  0  0  0
   -4.4668    1.3961   -0.3508 C   0  0  0  0  0  0  0  0  0  0  0  0
   -5.4374    1.7458   -1.3497 O   0  0  0  0  0  0  0  0  0  0  0  0
   -6.5329    2.5019   -0.8302 C   0  0  0  0  0  0  0  0  0  0  0  0
   -6.0652    3.8276   -0.2402 C   0  0  0  0  0  0  0  0  0  0  0  0
   -4.9815    3.5759    0.8120 C   0  0  0  0  0  0  0  0  0  0  0  0
   -3.8673    2.6904    0.2426 C   0  0  0  0  0  0  0  0  0  0  0  0
   -3.1660    3.4474   -0.7696 O   0  0  0  0  0  0  0  0  0  0  0  0
   -4.4450    4.8517    1.2178 O   0  0  0  0  0  0  0  0  0  0  0  0
   -7.1597    4.5325    0.3458 O   0  0  0  0  0  0  0  0  0  0  0  0
   -5.4433   -1.2887    5.6008 H   0  0  0  0  0  0  0  0  0  0  0  0
   -3.1450    0.3146    5.3572 H   0  0  0  0  0  0  0  0  0  0  0  0
   -4.6782    1.0137    4.8620 H   0  0  0  0  0  0  0  0  0  0  0  0
   -3.6170   -1.6899    3.8944 H   0  0  0  0  0  0  0  0  0  0  0  0
   -2.7334   -1.6865    1.6688 H   0  0  0  0  0  0  0  0  0  0  0  0
   -0.8596   -0.5908    2.9591 H   0  0  0  0  0  0  0  0  0  0  0  0
   -0.4585   -2.0405    2.0759 H   0  0  0  0  0  0  0  0  0  0  0  0
    1.2570    0.2343    2.9868 H   0  0  0  0  0  0  0  0  0  0  0  0
    1.5422   -1.4898    3.0590 H   0  0  0  0  0  0  0  0  0  0  0  0
    2.1394   -1.6072    0.7559 H   0  0  0  0  0  0  0  0  0  0  0  0
   -0.3823    1.5487   -0.2775 H   0  0  0  0  0  0  0  0  0  0  0  0
    0.1974    1.5645    1.3770 H   0  0  0  0  0  0  0  0  0  0  0  0
    0.5636   -0.1070   -1.9814 H   0  0  0  0  0  0  0  0  0  0  0  0
    1.5212   -1.4627   -1.3460 H   0  0  0  0  0  0  0  0  0  0  0  0
   -0.7781   -2.7505   -1.8022 H   0  0  0  0  0  0  0  0  0  0  0  0
   -2.0342   -2.5867   -0.4500 H   0  0  0  0  0  0  0  0  0  0  0  0
    2.3963    2.1905    0.0976 H   0  0  0  0  0  0  0  0  0  0  0  0
    1.8637    1.7742   -1.4967 H   0  0  0  0  0  0  0  0  0  0  0  0
    4.3454    1.7166   -1.1222 H   0  0  0  0  0  0  0  0  0  0  0  0
    3.6549    0.3150   -1.9038 H   0  0  0  0  0  0  0  0  0  0  0  0
    4.3052   -1.1155   -0.3754 H   0  0  0  0  0  0  0  0  0  0  0  0
    3.6311   -1.5043    3.2352 H   0  0  0  0  0  0  0  0  0  0  0  0
    5.2157   -1.1239    2.6296 H   0  0  0  0  0  0  0  0  0  0  0  0
    4.2069   -2.2880    1.7588 H   0  0  0  0  0  0  0  0  0  0  0  0
    2.8056    1.6997    2.2487 H   0  0  0  0  0  0  0  0  0  0  0  0
    3.9090    0.8899    3.3146 H   0  0  0  0  0  0  0  0  0  0  0  0
    4.4629    2.7122    0.9967 H   0  0  0  0  0  0  0  0  0  0  0  0
    5.1244    2.7332    2.6054 H   0  0  0  0  0  0  0  0  0  0  0  0
    6.7323    2.1240    0.7612 H   0  0  0  0  0  0  0  0  0  0  0  0
    6.6994    1.0286    2.1240 H   0  0  0  0  0  0  0  0  0  0  0  0
    6.2497   -0.7239    0.8540 H   0  0  0  0  0  0  0  0  0  0  0  0
    8.5884   -0.5205   -2.4582 H   0  0  0  0  0  0  0  0  0  0  0  0
   10.6390   -1.7368   -2.8515 H   0  0  0  0  0  0  0  0  0  0  0  0
   12.3070   -2.0760   -1.0092 H   0  0  0  0  0  0  0  0  0  0  0  0
   12.9111   -0.4290   -1.2565 H   0  0  0  0  0  0  0  0  0  0  0  0
   14.0643   -2.1062   -2.3869 H   0  0  0  0  0  0  0  0  0  0  0  0
   12.1802    0.4297   -3.7140 H   0  0  0  0  0  0  0  0  0  0  0  0
   11.4379    1.8095   -1.7301 H   0  0  0  0  0  0  0  0  0  0  0  0
    8.5883    1.8390   -2.8195 H   0  0  0  0  0  0  0  0  0  0  0  0
    9.5407    3.3042   -1.3333 H   0  0  0  0  0  0  0  0  0  0  0  0
   10.4943    2.4386   -4.3027 H   0  0  0  0  0  0  0  0  0  0  0  0
   10.6169   -0.5959   -4.9201 H   0  0  0  0  0  0  0  0  0  0  0  0
   -4.3799   -1.1731   -0.1941 H   0  0  0  0  0  0  0  0  0  0  0  0
   -4.9804   -2.5812    1.8195 H   0  0  0  0  0  0  0  0  0  0  0  0
   -6.0088    0.0378    3.0247 H   0  0  0  0  0  0  0  0  0  0  0  0
   -7.1343   -1.8042    3.5446 H   0  0  0  0  0  0  0  0  0  0  0  0
   -6.3670   -3.5857    0.5149 H   0  0  0  0  0  0  0  0  0  0  0  0
   -7.5323   -0.5097   -1.0181 H   0  0  0  0  0  0  0  0  0  0  0  0
   -6.5731   -1.6408   -3.6902 H   0  0  0  0  0  0  0  0  0  0  0  0
   -5.7350   -0.4184   -2.7675 H   0  0  0  0  0  0  0  0  0  0  0  0
   -8.3710    0.2444   -3.1508 H   0  0  0  0  0  0  0  0  0  0  0  0
   -8.7878   -2.3096   -3.0796 H   0  0  0  0  0  0  0  0  0  0  0  0
   -8.4219   -4.1524   -1.6291 H   0  0  0  0  0  0  0  0  0  0  0  0
   -9.0538   -2.2928    0.7261 H   0  0  0  0  0  0  0  0  0  0  0  0
   -8.6794   -4.0207    1.9423 H   0  0  0  0  0  0  0  0  0  0  0  0
  -10.4276   -4.4128   -0.6232 H   0  0  0  0  0  0  0  0  0  0  0  0
  -10.5835   -1.6376   -1.7425 H   0  0  0  0  0  0  0  0  0  0  0  0
   -3.6936    0.8541   -0.9071 H   0  0  0  0  0  0  0  0  0  0  0  0
   -7.0832    1.9068   -0.0907 H   0  0  0  0  0  0  0  0  0  0  0  0
   -7.2349    2.6895   -1.6527 H   0  0  0  0  0  0  0  0  0  0  0  0
   -5.6606    4.4683   -1.0307 H   0  0  0  0  0  0  0  0  0  0  0  0
   -5.4216    3.1229    1.7075 H   0  0  0  0  0  0  0  0  0  0  0  0
   -3.1434    2.4726    1.0334 H   0  0  0  0  0  0  0  0  0  0  0  0
   -3.5884    3.2338   -1.6260 H   0  0  0  0  0  0  0  0  0  0  0  0
   -3.7228    5.0380    0.5797 H   0  0  0  0  0  0  0  0  0  0  0  0
   -6.7570    5.2397    0.8869 H   0  0  0  0  0  0  0  0  0  0  0  0
  1  2  1  0
  2  3  1  0
  3  4  1  0
  4  5  1  0
  5  6  1  0
  6  7  1  0
  7  8  1  0
  8  9  1  0
  9 10  1  0
 10 11  1  0
 11 12  1  0
 11 13  1  0
 13 14  1  0
 14 15  2  0
 11 16  1  0
 16 17  1  0
 17 18  1  0
 18 19  1  0
 19 20  1  0
 19 21  1  0
 21 22  1  0
 22 23  1  0
 23 24  1  0
 24 25  1  0
 25 26  2  0
 25 27  1  0
 27 28  1  0
 28 29  1  0
 29 30  1  0
 30 31  1  0
 31 32  1  0
 30 33  1  0
 33 34  1  0
 34 35  1  0
 35 36  1  0
 34 37  1  0
 33 38  1  0
  5 39  1  0
 39 40  1  0
 40 41  1  0
 41 42  1  0
 40 43  1  0
 43 44  1  0
 44 45  1  0
 45 46  1  0
 46 47  1  0
 47 48  1  0
 46 49  1  0
 49 50  1  0
 50 51  1  0
 51 52  1  0
 50 53  1  0
 49 54  1  0
 39 55  1  0
 55 56  1  0
 56 57  1  0
 57 58  1  0
 58 59  1  0
 59 60  1  0
 60 61  1  0
 61 62  1  0
 60 63  1  0
 59 64  1  0
 41  3  1  0
 51 44  1  0
 61 56  1  0
 12  7  1  0
 24 18  1  0
 35 28  1  0
 14  7  1  0
 19 10  1  0
  1 65  1  0
  2 66  1  0
  2 67  1  0
  3 68  1  0
  5 69  1  0
  8 70  1  0
  8 71  1  0
  9 72  1  0
  9 73  1  0
 10 74  1  0
 12 75  1  0
 12 76  1  0
 13 77  1  0
 13 78  1  0
 15 79  1  0
 15 80  1  0
 16 81  1  0
 16 82  1  0
 17 83  1  0
 17 84  1  0
 18 85  1  0
 20 86  1  0
 20 87  1  0
 20 88  1  0
 21 89  1  0
 21 90  1  0
 22 91  1  0
 22 92  1  0
 23 93  1  0
 23 94  1  0
 24 95  1  0
 28 96  1  0
 30 97  1  0
 31 98  1  0
 31 99  1  0
 32100  1  0
 33101  1  0
 34102  1  0
 35103  1  0
 36104  1  0
 37105  1  0
 38106  1  0
 39107  1  0
 40108  1  0
 41109  1  0
 42110  1  0
 44111  1  0
 46112  1  0
 47113  1  0
 47114  1  0
 48115  1  0
 49116  1  0
 50117  1  0
 51118  1  0
 52119  1  0
 53120  1  0
 54121  1  0
 56122  1  0
 58123  1  0
 58124  1  0
 59125  1  0
 60126  1  0
 61127  1  0
 62128  1  0
 63129  1  0
 64130  1  0
M  END
