
     RDKit          3D

 20 19  0  0  0  0  0  0  0  0999 V2000
   -3.3627    0.0467    0.3212 O   0  0  0  0  0  0  0  0  0  0  0  0
   -2.2376   -0.0226   -0.5570 C   0  0  0  0  0  0  0  0  0  0  0  0
   -0.9505    0.0178    0.2753 C   0  0  0  0  0  0  0  0  0  0  0  0
    0.3125    0.0395   -0.5942 C   0  0  0  0  0  0  0  0  0  0  0  0
    1.6202    0.0127    0.2103 C   0  0  0  0  0  0  0  0  0  0  0  0
    1.7830    1.2442    1.0837 C   0  0  0  0  0  0  0  0  0  0  0  0
    2.7366    2.0117    0.9654 O   0  0  0  0  0  0  0  0  0  0  0  0
    2.6942   -0.0704   -0.7428 O   0  0  0  0  0  0  0  0  0  0  0  0
    0.2991   -1.1336   -1.4345 O   0  0  0  0  0  0  0  0  0  0  0  0
   -0.9284   -1.1451    1.1202 O   0  0  0  0  0  0  0  0  0  0  0  0
   -3.1861   -0.5976    1.0341 H   0  0  0  0  0  0  0  0  0  0  0  0
   -2.2924    0.8239   -1.2475 H   0  0  0  0  0  0  0  0  0  0  0  0
   -2.3274   -0.9547   -1.1236 H   0  0  0  0  0  0  0  0  0  0  0  0
   -0.9876    0.8867    0.9399 H   0  0  0  0  0  0  0  0  0  0  0  0
    0.2956    0.9091   -1.2621 H   0  0  0  0  0  0  0  0  0  0  0  0
    1.6910   -0.8775    0.8431 H   0  0  0  0  0  0  0  0  0  0  0  0
    1.0270    1.3922    1.8721 H   0  0  0  0  0  0  0  0  0  0  0  0
    3.4157    0.4931   -0.3907 H   0  0  0  0  0  0  0  0  0  0  0  0
    1.1986   -1.1709   -1.8270 H   0  0  0  0  0  0  0  0  0  0  0  0
   -0.8007   -1.9051    0.5140 H   0  0  0  0  0  0  0  0  0  0  0  0
  1  2  1  0
  2  3  1  0
  3  4  1  0
  4  5  1  0
  5  6  1  0
  6  7  2  0
  5  8  1  0
  4  9  1  0
  3 10  1  0
  1 11  1  0
  2 12  1  0
  2 13  1  0
  3 14  1  0
  4 15  1  0
  5 16  1  0
  6 17  1  0
  8 18  1  0
  9 19  1  0
 10 20  1  0
M  END
