
     RDKit          3D

 33 35  0  0  0  0  0  0  0  0999 V2000
    5.3081    1.8420    0.6446 C   0  0  0  0  0  0  0  0  0  0  0  0
    4.8890    0.5174    0.3365 O   0  0  0  0  0  0  0  0  0  0  0  0
    3.5376    0.3128    0.2299 C   0  0  0  0  0  0  0  0  0  0  0  0
    2.5411    1.2680    0.4168 C   0  0  0  0  0  0  0  0  0  0  0  0
    1.1929    0.9120    0.2759 C   0  0  0  0  0  0  0  0  0  0  0  0
    0.8196   -0.4006   -0.0600 C   0  0  0  0  0  0  0  0  0  0  0  0
    1.8262   -1.3581   -0.2410 C   0  0  0  0  0  0  0  0  0  0  0  0
    3.1607   -0.9942   -0.0964 C   0  0  0  0  0  0  0  0  0  0  0  0
    4.1139   -1.9593   -0.2811 O   0  0  0  0  0  0  0  0  0  0  0  0
   -0.6367   -0.8035   -0.1883 C   0  0  0  0  0  0  0  0  0  0  0  0
   -1.2385   -1.1352    1.1791 C   0  0  0  0  0  0  0  0  0  0  0  0
   -2.5810   -1.6206    1.0417 O   0  0  0  0  0  0  0  0  0  0  0  0
   -3.3073   -0.8411    0.1787 C   0  0  0  0  0  0  0  0  0  0  0  0
   -2.7262    0.0757   -0.7029 C   0  0  0  0  0  0  0  0  0  0  0  0
   -1.3725    0.2668   -0.8070 O   0  0  0  0  0  0  0  0  0  0  0  0
   -3.5324    0.8583   -1.5277 C   0  0  0  0  0  0  0  0  0  0  0  0
   -4.9193    0.7044   -1.4934 C   0  0  0  0  0  0  0  0  0  0  0  0
   -5.4979   -0.2298   -0.6326 C   0  0  0  0  0  0  0  0  0  0  0  0
   -4.6912   -1.0041    0.2030 C   0  0  0  0  0  0  0  0  0  0  0  0
    5.0008    2.5453   -0.1364 H   0  0  0  0  0  0  0  0  0  0  0  0
    4.9388    2.1539    1.6271 H   0  0  0  0  0  0  0  0  0  0  0  0
    6.4017    1.8452    0.6838 H   0  0  0  0  0  0  0  0  0  0  0  0
    2.7711    2.2970    0.6717 H   0  0  0  0  0  0  0  0  0  0  0  0
    0.4290    1.6741    0.4250 H   0  0  0  0  0  0  0  0  0  0  0  0
    1.5835   -2.3867   -0.4952 H   0  0  0  0  0  0  0  0  0  0  0  0
    4.9650   -1.4993   -0.1440 H   0  0  0  0  0  0  0  0  0  0  0  0
   -0.7129   -1.6698   -0.8607 H   0  0  0  0  0  0  0  0  0  0  0  0
   -1.2555   -0.2603    1.8428 H   0  0  0  0  0  0  0  0  0  0  0  0
   -0.6598   -1.9190    1.6806 H   0  0  0  0  0  0  0  0  0  0  0  0
   -3.0805    1.5780   -2.2045 H   0  0  0  0  0  0  0  0  0  0  0  0
   -5.5483    1.3093   -2.1416 H   0  0  0  0  0  0  0  0  0  0  0  0
   -6.5777   -0.3528   -0.6097 H   0  0  0  0  0  0  0  0  0  0  0  0
   -5.1411   -1.7259    0.8790 H   0  0  0  0  0  0  0  0  0  0  0  0
  1  2  1  0
  2  3  1  0
  3  4  2  0
  4  5  1  0
  5  6  2  0
  6  7  1  0
  7  8  2  0
  8  9  1  0
  6 10  1  0
 10 11  1  0
 11 12  1  0
 12 13  1  0
 13 14  2  0
 14 15  1  0
 14 16  1  0
 16 17  2  0
 17 18  1  0
 18 19  2  0
  8  3  1  0
 15 10  1  0
 19 13  1  0
  1 20  1  0
  1 21  1  0
  1 22  1  0
  4 23  1  0
  5 24  1  0
  7 25  1  0
  9 26  1  0
 10 27  1  0
 11 28  1  0
 11 29  1  0
 16 30  1  0
 17 31  1  0
 18 32  1  0
 19 33  1  0
M  END
