
     RDKit          3D

 95100  0  0  0  0  0  0  0  0999 V2000
    6.6300    2.8009   -2.2821 O   0  0  0  0  0  0  0  0  0  0  0  0
    7.7186    1.9900   -1.8355 C   0  0  0  0  0  0  0  0  0  0  0  0
    7.1693    0.8210   -1.0107 C   0  0  0  0  0  0  0  0  0  0  0  0
    6.3346    0.0344   -1.8880 O   0  0  0  0  0  0  0  0  0  0  0  0
    5.6634   -1.0288   -1.1856 C   0  0  0  0  0  0  0  0  0  0  0  0
    4.8247   -0.4747   -0.1578 O   0  0  0  0  0  0  0  0  0  0  0  0
    3.7557   -1.2306    0.1935 C   0  0  0  0  0  0  0  0  0  0  0  0
    3.5193   -2.3281   -0.3004 O   0  0  0  0  0  0  0  0  0  0  0  0
    2.9296   -0.5937    1.3335 C   0  0  0  0  0  0  0  0  0  0  0  0
    3.4823   -1.3257    2.5806 C   0  0  0  0  0  0  0  0  0  0  0  0
    3.2113    0.9089    1.5195 C   0  0  0  0  0  0  0  0  0  0  0  0
    2.6723    1.7773    0.3926 C   0  0  0  0  0  0  0  0  0  0  0  0
    1.1651    1.6178    0.2589 C   0  0  0  0  0  0  0  0  0  0  0  0
    0.7077    0.1555    0.0324 C   0  0  0  0  0  0  0  0  0  0  0  0
    1.3882   -0.8536    1.0649 C   0  0  0  0  0  0  0  0  0  0  0  0
    0.5139   -1.0884    2.3365 C   0  0  0  0  0  0  0  0  0  0  0  0
   -0.4083    0.0623    2.7100 C   0  0  0  0  0  0  0  0  0  0  0  0
   -1.4047    0.4018    1.5901 C   0  0  0  0  0  0  0  0  0  0  0  0
   -0.8498   -0.0047    0.1774 C   0  0  0  0  0  0  0  0  0  0  0  0
   -1.7522    0.5559   -0.9400 C   0  0  0  0  0  0  0  0  0  0  0  0
   -3.2289    0.2008   -0.6794 C   0  0  0  0  0  0  0  0  0  0  0  0
   -3.6752    0.4285    0.7822 C   0  0  0  0  0  0  0  0  0  0  0  0
   -2.7413   -0.3441    1.7395 C   0  0  0  0  0  0  0  0  0  0  0  0
   -3.3438    1.8456    1.2158 C   0  0  0  0  0  0  0  0  0  0  0  0
   -4.1361    2.9290    1.2188 C   0  0  0  0  0  0  0  0  0  0  0  0
   -1.9153    1.8678    1.7313 C   0  0  0  0  0  0  0  0  0  0  0  0
   -4.9830    0.0245    1.1418 O   0  0  0  0  0  0  0  0  0  0  0  0
   -6.0376    0.1515    0.1967 C   0  0  0  0  0  0  0  0  0  0  0  0
   -5.9450   -0.8494   -0.8159 O   0  0  0  0  0  0  0  0  0  0  0  0
   -7.0005   -0.7211   -1.7893 C   0  0  0  0  0  0  0  0  0  0  0  0
   -6.7340   -1.7316   -2.9114 C   0  0  0  0  0  0  0  0  0  0  0  0
   -5.4496   -1.4722   -3.4809 O   0  0  0  0  0  0  0  0  0  0  0  0
   -8.3656   -0.9666   -1.1303 C   0  0  0  0  0  0  0  0  0  0  0  0
   -8.5563   -0.0472    0.0816 C   0  0  0  0  0  0  0  0  0  0  0  0
   -7.3379   -0.0629    1.0087 C   0  0  0  0  0  0  0  0  0  0  0  0
   -7.5267    0.9396    2.0242 O   0  0  0  0  0  0  0  0  0  0  0  0
   -8.7922    1.3044   -0.3734 O   0  0  0  0  0  0  0  0  0  0  0  0
   -9.4295   -0.7395   -2.0600 O   0  0  0  0  0  0  0  0  0  0  0  0
    1.1136   -0.2344   -1.4171 C   0  0  0  0  0  0  0  0  0  0  0  0
    6.6904   -2.0350   -0.5995 C   0  0  0  0  0  0  0  0  0  0  0  0
    7.7222   -1.2947    0.2680 C   0  0  0  0  0  0  0  0  0  0  0  0
    8.2906   -0.0637   -0.4534 C   0  0  0  0  0  0  0  0  0  0  0  0
    9.1622   -0.5219   -1.5110 O   0  0  0  0  0  0  0  0  0  0  0  0
    8.8098   -2.1668    0.6244 O   0  0  0  0  0  0  0  0  0  0  0  0
    6.0711   -3.0758    0.1722 O   0  0  0  0  0  0  0  0  0  0  0  0
    6.0205    2.2013   -2.7544 H   0  0  0  0  0  0  0  0  0  0  0  0
    8.3908    2.6109   -1.2409 H   0  0  0  0  0  0  0  0  0  0  0  0
    8.2420    1.6406   -2.7337 H   0  0  0  0  0  0  0  0  0  0  0  0
    6.5430    1.2204   -0.2041 H   0  0  0  0  0  0  0  0  0  0  0  0
    5.0417   -1.5370   -1.9284 H   0  0  0  0  0  0  0  0  0  0  0  0
    3.2187   -2.3907    2.5726 H   0  0  0  0  0  0  0  0  0  0  0  0
    4.5862   -1.2667    2.6227 H   0  0  0  0  0  0  0  0  0  0  0  0
    3.1180   -0.8866    3.5172 H   0  0  0  0  0  0  0  0  0  0  0  0
    2.7591    1.2422    2.4630 H   0  0  0  0  0  0  0  0  0  0  0  0
    4.2866    1.1003    1.6273 H   0  0  0  0  0  0  0  0  0  0  0  0
    2.8937    2.8283    0.6213 H   0  0  0  0  0  0  0  0  0  0  0  0
    3.1801    1.5584   -0.5517 H   0  0  0  0  0  0  0  0  0  0  0  0
    0.7311    2.0368    1.1720 H   0  0  0  0  0  0  0  0  0  0  0  0
    0.8171    2.2590   -0.5599 H   0  0  0  0  0  0  0  0  0  0  0  0
    1.3427   -1.8393    0.5769 H   0  0  0  0  0  0  0  0  0  0  0  0
   -0.1198   -1.9711    2.1582 H   0  0  0  0  0  0  0  0  0  0  0  0
    1.1049   -1.3558    3.2125 H   0  0  0  0  0  0  0  0  0  0  0  0
    0.2043    0.9344    2.9656 H   0  0  0  0  0  0  0  0  0  0  0  0
   -0.9510   -0.1944    3.6315 H   0  0  0  0  0  0  0  0  0  0  0  0
   -0.9988   -1.0952    0.0899 H   0  0  0  0  0  0  0  0  0  0  0  0
   -1.6318    1.6399   -1.0263 H   0  0  0  0  0  0  0  0  0  0  0  0
   -1.4859    0.1289   -1.9128 H   0  0  0  0  0  0  0  0  0  0  0  0
   -3.8579    0.7732   -1.3702 H   0  0  0  0  0  0  0  0  0  0  0  0
   -3.3847   -0.8548   -0.9335 H   0  0  0  0  0  0  0  0  0  0  0  0
   -2.6779   -1.4080    1.4859 H   0  0  0  0  0  0  0  0  0  0  0  0
   -3.1190   -0.3062    2.7721 H   0  0  0  0  0  0  0  0  0  0  0  0
   -5.1546    2.9027    0.8521 H   0  0  0  0  0  0  0  0  0  0  0  0
   -3.7725    3.8875    1.5825 H   0  0  0  0  0  0  0  0  0  0  0  0
   -1.3133    2.5781    1.1593 H   0  0  0  0  0  0  0  0  0  0  0  0
   -1.9189    2.1765    2.7834 H   0  0  0  0  0  0  0  0  0  0  0  0
   -6.0161    1.1554   -0.2461 H   0  0  0  0  0  0  0  0  0  0  0  0
   -6.9442    0.2847   -2.2307 H   0  0  0  0  0  0  0  0  0  0  0  0
   -6.7170   -2.7555   -2.5235 H   0  0  0  0  0  0  0  0  0  0  0  0
   -7.4810   -1.6597   -3.7066 H   0  0  0  0  0  0  0  0  0  0  0  0
   -4.8207   -1.4638   -2.7268 H   0  0  0  0  0  0  0  0  0  0  0  0
   -8.4238   -2.0105   -0.7863 H   0  0  0  0  0  0  0  0  0  0  0  0
   -9.4613   -0.3272    0.6318 H   0  0  0  0  0  0  0  0  0  0  0  0
   -7.2911   -1.0366    1.5203 H   0  0  0  0  0  0  0  0  0  0  0  0
   -6.7761    1.5773    1.9557 H   0  0  0  0  0  0  0  0  0  0  0  0
   -8.8368    1.8318    0.4495 H   0  0  0  0  0  0  0  0  0  0  0  0
   -9.6235    0.2214   -2.0078 H   0  0  0  0  0  0  0  0  0  0  0  0
    2.1921   -0.2041   -1.5787 H   0  0  0  0  0  0  0  0  0  0  0  0
    0.6783    0.4544   -2.1479 H   0  0  0  0  0  0  0  0  0  0  0  0
    0.7680   -1.2437   -1.6653 H   0  0  0  0  0  0  0  0  0  0  0  0
    7.2167   -2.5329   -1.4234 H   0  0  0  0  0  0  0  0  0  0  0  0
    7.2448   -0.9845    1.2080 H   0  0  0  0  0  0  0  0  0  0  0  0
    8.9250    0.5055    0.2385 H   0  0  0  0  0  0  0  0  0  0  0  0
    8.6094   -0.7240   -2.2950 H   0  0  0  0  0  0  0  0  0  0  0  0
    9.5332   -1.9841   -0.0158 H   0  0  0  0  0  0  0  0  0  0  0  0
    5.1974   -3.2796   -0.2156 H   0  0  0  0  0  0  0  0  0  0  0  0
  1  2  1  0
  2  3  1  0
  3  4  1  0
  4  5  1  0
  5  6  1  0
  6  7  1  0
  7  8  2  0
  7  9  1  0
  9 10  1  0
  9 11  1  0
 11 12  1  0
 12 13  1  0
 13 14  1  0
 14 15  1  0
 15 16  1  0
 16 17  1  0
 17 18  1  0
 18 19  1  0
 19 20  1  0
 20 21  1  0
 21 22  1  0
 22 23  1  0
 22 24  1  0
 24 25  2  0
 24 26  1  0
 22 27  1  0
 27 28  1  0
 28 29  1  0
 29 30  1  0
 30 31  1  0
 31 32  1  0
 30 33  1  0
 33 34  1  0
 34 35  1  0
 35 36  1  0
 34 37  1  0
 33 38  1  0
 14 39  1  0
  5 40  1  0
 40 41  1  0
 41 42  1  0
 42 43  1  0
 41 44  1  0
 40 45  1  0
 42  3  1  0
 15  9  1  0
 26 18  1  0
 35 28  1  0
 19 14  1  0
 23 18  1  0
  1 46  1  0
  2 47  1  0
  2 48  1  0
  3 49  1  0
  5 50  1  0
 10 51  1  0
 10 52  1  0
 10 53  1  0
 11 54  1  0
 11 55  1  0
 12 56  1  0
 12 57  1  0
 13 58  1  0
 13 59  1  0
 15 60  1  0
 16 61  1  0
 16 62  1  0
 17 63  1  0
 17 64  1  0
 19 65  1  0
 20 66  1  0
 20 67  1  0
 21 68  1  0
 21 69  1  0
 23 70  1  0
 23 71  1  0
 25 72  1  0
 25 73  1  0
 26 74  1  0
 26 75  1  0
 28 76  1  0
 30 77  1  0
 31 78  1  0
 31 79  1  0
 32 80  1  0
 33 81  1  0
 34 82  1  0
 35 83  1  0
 36 84  1  0
 37 85  1  0
 38 86  1  0
 39 87  1  0
 39 88  1  0
 39 89  1  0
 40 90  1  0
 41 91  1  0
 42 92  1  0
 43 93  1  0
 44 94  1  0
 45 95  1  0
M  END
