
     RDKit          3D

 17 18  0  0  0  0  0  0  0  0999 V2000
   -1.2991    2.6452    0.8330 O   0  0  0  0  0  0  0  0  0  0  0  0
   -1.2196    1.4555    0.6053 C   0  0  0  0  0  0  0  0  0  0  0  0
   -2.3232    0.5842    0.5240 N   0  0  0  0  0  0  0  0  0  0  0  0
   -1.9402   -0.9223   -0.0959 S   0  0  0  0  0  6  0  0  0  0  0  0
   -2.4458   -0.9959   -1.4446 O   0  0  0  0  0  0  0  0  0  0  0  0
   -2.1790   -1.9234    0.9137 O   0  0  0  0  0  0  0  0  0  0  0  0
   -0.2365   -0.5782   -0.1514 C   0  0  0  0  0  0  0  0  0  0  0  0
    0.0131    0.7180    0.2789 C   0  0  0  0  0  0  0  0  0  0  0  0
    1.3077    1.2093    0.3242 C   0  0  0  0  0  0  0  0  0  0  0  0
    2.3469    0.3537   -0.0582 C   0  0  0  0  0  0  0  0  0  0  0  0
    2.0801   -0.9631   -0.4808 C   0  0  0  0  0  0  0  0  0  0  0  0
    0.7705   -1.4460   -0.5307 C   0  0  0  0  0  0  0  0  0  0  0  0
   -3.2212    0.9966    0.2918 H   0  0  0  0  0  0  0  0  0  0  0  0
    1.5097    2.2276    0.6447 H   0  0  0  0  0  0  0  0  0  0  0  0
    3.3759    0.7093   -0.0308 H   0  0  0  0  0  0  0  0  0  0  0  0
    2.9064   -1.6102   -0.7714 H   0  0  0  0  0  0  0  0  0  0  0  0
    0.5543   -2.4603   -0.8519 H   0  0  0  0  0  0  0  0  0  0  0  0
  1  2  2  0
  2  3  1  0
  3  4  1  0
  4  5  2  0
  4  6  2  0
  4  7  1  0
  7  8  2  0
  8  9  1  0
  9 10  2  0
 10 11  1  0
 11 12  2  0
  8  2  1  0
 12  7  1  0
  3 13  1  0
  9 14  1  0
 10 15  1  0
 11 16  1  0
 12 17  1  0
M  END
