
     RDKit          3D

 96105  0  0  0  0  0  0  0  0999 V2000
   -1.4686   -6.7884    3.9750 O   0  0  0  0  0  0  0  0  0  0  0  0
   -1.1057   -5.7061    3.2284 C   0  0  0  0  0  0  0  0  0  0  0  0
   -0.5494   -5.8546    1.9639 C   0  0  0  0  0  0  0  0  0  0  0  0
   -0.1981   -4.7181    1.2299 C   0  0  0  0  0  0  0  0  0  0  0  0
   -0.4016   -3.4315    1.7571 C   0  0  0  0  0  0  0  0  0  0  0  0
   -0.9563   -3.3117    3.0396 C   0  0  0  0  0  0  0  0  0  0  0  0
   -1.3083   -4.4457    3.7725 C   0  0  0  0  0  0  0  0  0  0  0  0
   -0.0353   -2.2036    0.9368 C   0  0  0  0  0  0  0  0  0  0  0  0
   -1.1758   -1.3290    0.9186 O   0  0  0  0  0  0  0  0  0  0  0  0
   -0.9700   -0.1272    0.2875 C   0  0  0  0  0  0  0  0  0  0  0  0
    0.3077    0.3942    0.0183 C   0  0  0  0  0  0  0  0  0  0  0  0
    1.5650   -0.3326    0.4727 C   0  0  0  0  0  0  0  0  0  0  0  0
    1.2338   -1.4952    1.4331 C   0  0  0  0  0  0  0  0  0  0  0  0
    1.0555   -0.9749    2.7684 O   0  0  0  0  0  0  0  0  0  0  0  0
    2.5423   -0.7932   -0.6181 C   0  0  0  0  0  0  0  0  0  0  0  0
    2.1365   -1.2426   -1.8835 C   0  0  0  0  0  0  0  0  0  0  0  0
    0.8062   -1.3605   -2.1676 O   0  0  0  0  0  0  0  0  0  0  0  0
    3.0616   -1.6044   -2.8619 C   0  0  0  0  0  0  0  0  0  0  0  0
    4.4194   -1.5482   -2.5677 C   0  0  0  0  0  0  0  0  0  0  0  0
    4.8730   -1.1668   -1.3020 C   0  0  0  0  0  0  0  0  0  0  0  0
    3.9315   -0.7834   -0.3370 C   0  0  0  0  0  0  0  0  0  0  0  0
    4.2885   -0.4100    0.9366 O   0  0  0  0  0  0  0  0  0  0  0  0
    5.6803   -0.1607    1.2171 C   0  0  0  0  0  0  0  0  0  0  0  0
    6.6104   -1.1497    0.4947 C   0  0  0  0  0  0  0  0  0  0  0  0
    6.3474   -1.1428   -1.0036 C   0  0  0  0  0  0  0  0  0  0  0  0
    6.4223   -2.4787    1.0169 O   0  0  0  0  0  0  0  0  0  0  0  0
    6.0762    1.3022    1.0525 C   0  0  0  0  0  0  0  0  0  0  0  0
    5.2646    2.2397    0.3937 C   0  0  0  0  0  0  0  0  0  0  0  0
    5.6628    3.5741    0.2645 C   0  0  0  0  0  0  0  0  0  0  0  0
    6.8807    3.9825    0.7977 C   0  0  0  0  0  0  0  0  0  0  0  0
    7.6987    3.0793    1.4611 C   0  0  0  0  0  0  0  0  0  0  0  0
    7.2965    1.7477    1.5939 C   0  0  0  0  0  0  0  0  0  0  0  0
    7.3057    5.2740    0.6965 O   0  0  0  0  0  0  0  0  0  0  0  0
    5.3418   -1.8894   -3.5199 O   0  0  0  0  0  0  0  0  0  0  0  0
    0.3951    1.6368   -0.6275 C   0  0  0  0  0  0  0  0  0  0  0  0
    1.6275    2.1759   -0.8784 O   0  0  0  0  0  0  0  0  0  0  0  0
   -0.7451    2.3395   -1.0041 C   0  0  0  0  0  0  0  0  0  0  0  0
   -2.0024    1.8195   -0.7121 C   0  0  0  0  0  0  0  0  0  0  0  0
   -2.1307    0.5943   -0.0494 C   0  0  0  0  0  0  0  0  0  0  0  0
   -3.5174    0.0804    0.2767 C   0  0  0  0  0  0  0  0  0  0  0  0
   -4.0868   -0.7159   -0.8705 C   0  0  0  0  0  0  0  0  0  0  0  0
   -4.0129   -2.1123   -0.9514 C   0  0  0  0  0  0  0  0  0  0  0  0
   -3.4086   -2.8819    0.0003 O   0  0  0  0  0  0  0  0  0  0  0  0
   -4.5839   -2.7998   -2.0200 C   0  0  0  0  0  0  0  0  0  0  0  0
   -5.2039   -2.0917   -3.0392 C   0  0  0  0  0  0  0  0  0  0  0  0
   -5.2700   -0.7044   -2.9986 C   0  0  0  0  0  0  0  0  0  0  0  0
   -4.7198   -0.0208   -1.9114 C   0  0  0  0  0  0  0  0  0  0  0  0
   -4.8675    1.3398   -1.9354 O   0  0  0  0  0  0  0  0  0  0  0  0
   -4.3852    2.0966   -0.7942 C   0  0  0  0  0  0  0  0  0  0  0  0
   -3.0616    2.5979   -1.0872 O   0  0  0  0  0  0  0  0  0  0  0  0
   -4.4446    1.2749    0.5213 C   0  0  0  0  0  0  0  0  0  0  0  0
   -4.0386    2.0059    1.6927 O   0  0  0  0  0  0  0  0  0  0  0  0
   -5.3132    3.3201   -0.6664 C   0  0  0  0  0  0  0  0  0  0  0  0
   -4.8449    4.5208   -0.1001 C   0  0  0  0  0  0  0  0  0  0  0  0
   -5.6845    5.6268    0.0356 C   0  0  0  0  0  0  0  0  0  0  0  0
   -7.0072    5.5434   -0.3776 C   0  0  0  0  0  0  0  0  0  0  0  0
   -7.5059    4.3684   -0.9266 C   0  0  0  0  0  0  0  0  0  0  0  0
   -6.6620    3.2628   -1.0685 C   0  0  0  0  0  0  0  0  0  0  0  0
   -7.7945    6.6454   -0.2244 O   0  0  0  0  0  0  0  0  0  0  0  0
   -5.7406   -2.7985   -4.0745 O   0  0  0  0  0  0  0  0  0  0  0  0
   -1.3079   -7.5907    3.4503 H   0  0  0  0  0  0  0  0  0  0  0  0
   -0.3897   -6.8365    1.5296 H   0  0  0  0  0  0  0  0  0  0  0  0
    0.2292   -4.8475    0.2375 H   0  0  0  0  0  0  0  0  0  0  0  0
   -1.1192   -2.3269    3.4739 H   0  0  0  0  0  0  0  0  0  0  0  0
   -1.7385   -4.3422    4.7625 H   0  0  0  0  0  0  0  0  0  0  0  0
    0.1122   -2.5532   -0.0902 H   0  0  0  0  0  0  0  0  0  0  0  0
    2.0847    0.4323    1.0677 H   0  0  0  0  0  0  0  0  0  0  0  0
    2.0602   -2.2119    1.4986 H   0  0  0  0  0  0  0  0  0  0  0  0
    1.8941   -0.5547    3.0243 H   0  0  0  0  0  0  0  0  0  0  0  0
    0.6779   -1.3726   -3.1304 H   0  0  0  0  0  0  0  0  0  0  0  0
    2.7229   -1.9395   -3.8366 H   0  0  0  0  0  0  0  0  0  0  0  0
    5.7599   -0.3685    2.2926 H   0  0  0  0  0  0  0  0  0  0  0  0
    7.6640   -0.9128    0.6736 H   0  0  0  0  0  0  0  0  0  0  0  0
    6.7702   -0.2390   -1.4571 H   0  0  0  0  0  0  0  0  0  0  0  0
    6.8338   -2.0177   -1.4511 H   0  0  0  0  0  0  0  0  0  0  0  0
    5.4855   -2.7122    0.8799 H   0  0  0  0  0  0  0  0  0  0  0  0
    4.3038    1.9472   -0.0262 H   0  0  0  0  0  0  0  0  0  0  0  0
    5.0096    4.2724   -0.2498 H   0  0  0  0  0  0  0  0  0  0  0  0
    8.6437    3.4126    1.8829 H   0  0  0  0  0  0  0  0  0  0  0  0
    7.9504    1.0608    2.1293 H   0  0  0  0  0  0  0  0  0  0  0  0
    6.6145    5.7906    0.2502 H   0  0  0  0  0  0  0  0  0  0  0  0
    4.8842   -2.1571   -4.3326 H   0  0  0  0  0  0  0  0  0  0  0  0
    1.5037    3.0188   -1.3470 H   0  0  0  0  0  0  0  0  0  0  0  0
   -0.6752    3.3015   -1.5034 H   0  0  0  0  0  0  0  0  0  0  0  0
   -3.4989   -0.5076    1.2022 H   0  0  0  0  0  0  0  0  0  0  0  0
   -2.7210   -2.3614    0.4574 H   0  0  0  0  0  0  0  0  0  0  0  0
   -4.5344   -3.8843   -2.0599 H   0  0  0  0  0  0  0  0  0  0  0  0
   -5.7540   -0.1423   -3.7896 H   0  0  0  0  0  0  0  0  0  0  0  0
   -5.4700    0.9286    0.7069 H   0  0  0  0  0  0  0  0  0  0  0  0
   -4.0666    1.3992    2.4518 H   0  0  0  0  0  0  0  0  0  0  0  0
   -3.8154    4.5985    0.2459 H   0  0  0  0  0  0  0  0  0  0  0  0
   -5.3056    6.5458    0.4718 H   0  0  0  0  0  0  0  0  0  0  0  0
   -8.5382    4.2922   -1.2519 H   0  0  0  0  0  0  0  0  0  0  0  0
   -7.0694    2.3490   -1.4970 H   0  0  0  0  0  0  0  0  0  0  0  0
   -8.6873    6.4360   -0.5432 H   0  0  0  0  0  0  0  0  0  0  0  0
   -6.1433   -2.1752   -4.7043 H   0  0  0  0  0  0  0  0  0  0  0  0
  1  2  1  0
  2  3  2  0
  3  4  1  0
  4  5  2  0
  5  6  1  0
  6  7  2  0
  5  8  1  0
  8  9  1  0
  9 10  1  0
 10 11  2  0
 11 12  1  0
 12 13  1  0
 13 14  1  0
 12 15  1  0
 15 16  2  0
 16 17  1  0
 16 18  1  0
 18 19  2  0
 19 20  1  0
 20 21  2  0
 21 22  1  0
 22 23  1  0
 23 24  1  0
 24 25  1  0
 24 26  1  0
 23 27  1  0
 27 28  2  0
 28 29  1  0
 29 30  2  0
 30 31  1  0
 31 32  2  0
 30 33  1  0
 19 34  1  0
 11 35  1  0
 35 36  1  0
 35 37  2  0
 37 38  1  0
 38 39  2  0
 39 40  1  0
 40 41  1  0
 41 42  2  0
 42 43  1  0
 42 44  1  0
 44 45  2  0
 45 46  1  0
 46 47  2  0
 47 48  1  0
 48 49  1  0
 49 50  1  0
 49 51  1  0
 51 52  1  0
 49 53  1  0
 53 54  2  0
 54 55  1  0
 55 56  2  0
 56 57  1  0
 57 58  2  0
 56 59  1  0
 45 60  1  0
  7  2  1  0
 13  8  1  0
 21 15  1  0
 32 27  1  0
 50 38  1  0
 58 53  1  0
 39 10  1  0
 51 40  1  0
 25 20  1  0
 47 41  1  0
  1 61  1  0
  3 62  1  0
  4 63  1  0
  6 64  1  0
  7 65  1  0
  8 66  1  0
 12 67  1  0
 13 68  1  0
 14 69  1  0
 17 70  1  0
 18 71  1  0
 23 72  1  0
 24 73  1  0
 25 74  1  0
 25 75  1  0
 26 76  1  0
 28 77  1  0
 29 78  1  0
 31 79  1  0
 32 80  1  0
 33 81  1  0
 34 82  1  0
 36 83  1  0
 37 84  1  0
 40 85  1  0
 43 86  1  0
 44 87  1  0
 46 88  1  0
 51 89  1  0
 52 90  1  0
 54 91  1  0
 55 92  1  0
 57 93  1  0
 58 94  1  0
 59 95  1  0
 60 96  1  0
M  END
