
     RDKit          3D

170177  0  0  0  0  0  0  0  0999 V2000
   -3.7030   -7.2033   -2.9328 O   0  0  0  0  0  0  0  0  0  0  0  0
   -3.9406   -6.1412   -2.0142 C   0  0  0  0  0  0  0  0  0  0  0  0
   -4.7904   -5.0450   -2.6620 C   0  0  0  0  0  0  0  0  0  0  0  0
   -4.8563   -3.9378   -1.7455 O   0  0  0  0  0  0  0  0  0  0  0  0
   -6.0194   -3.1229   -1.8549 C   0  0  0  0  0  0  0  0  0  0  0  0
   -5.6641   -1.7817   -1.5096 O   0  0  0  0  0  0  0  0  0  0  0  0
   -5.7005   -1.5149   -0.0994 C   0  0  0  0  0  0  0  0  0  0  0  0
   -4.8229   -0.2687    0.1816 C   0  0  0  0  0  0  0  0  0  0  0  0
   -5.4006    0.9194   -0.3720 O   0  0  0  0  0  0  0  0  0  0  0  0
   -6.7174    1.2006    0.1150 C   0  0  0  0  0  0  0  0  0  0  0  0
   -7.7050    0.0546   -0.1796 C   0  0  0  0  0  0  0  0  0  0  0  0
   -7.1505   -1.2658    0.3765 C   0  0  0  0  0  0  0  0  0  0  0  0
   -7.2447   -1.2480    1.8074 O   0  0  0  0  0  0  0  0  0  0  0  0
   -7.9633   -0.0870   -1.5858 O   0  0  0  0  0  0  0  0  0  0  0  0
   -7.1620    2.5400   -0.4847 C   0  0  0  0  0  0  0  0  0  0  0  0
   -8.4728    2.8606   -0.0171 O   0  0  0  0  0  0  0  0  0  0  0  0
   -8.8875    4.1894   -0.3675 C   0  0  0  0  0  0  0  0  0  0  0  0
  -10.3158    4.1357   -0.4974 O   0  0  0  0  0  0  0  0  0  0  0  0
  -11.0551    4.5099    0.6891 C   0  0  0  0  0  0  0  0  0  0  0  0
  -12.4397    3.8625    0.5740 C   0  0  0  0  0  0  0  0  0  0  0  0
  -13.0911    4.3419   -0.6050 O   0  0  0  0  0  0  0  0  0  0  0  0
  -10.3483    4.1210    2.0021 C   0  0  0  0  0  0  0  0  0  0  0  0
   -8.9287    4.7198    2.0732 C   0  0  0  0  0  0  0  0  0  0  0  0
   -8.4627    5.2203    0.6975 C   0  0  0  0  0  0  0  0  0  0  0  0
   -7.0517    5.4603    0.7201 O   0  0  0  0  0  0  0  0  0  0  0  0
   -8.8797    5.8303    2.9829 O   0  0  0  0  0  0  0  0  0  0  0  0
  -10.2599    2.6921    2.1039 O   0  0  0  0  0  0  0  0  0  0  0  0
   -4.5897   -0.1610    1.5907 O   0  0  0  0  0  0  0  0  0  0  0  0
   -3.6651    0.8804    1.9696 C   0  0  0  0  0  0  0  0  0  0  0  0
   -4.0172    1.2592    3.4471 C   0  0  0  0  0  0  0  0  0  0  0  0
   -5.3927    1.6861    3.4740 O   0  0  0  0  0  0  0  0  0  0  0  0
   -3.9178    0.0787    4.4239 C   0  0  0  0  0  0  0  0  0  0  0  0
   -3.1887    2.4384    3.9540 C   0  0  0  0  0  0  0  0  0  0  0  0
   -2.2050    0.4008    1.7822 C   0  0  0  0  0  0  0  0  0  0  0  0
   -1.3522    1.4135    0.9952 C   0  0  0  0  0  0  0  0  0  0  0  0
    0.1835    1.3873    1.2086 C   0  0  0  0  0  0  0  0  0  0  0  0
    0.9983    0.1912    0.6422 C   0  0  0  0  0  0  0  0  0  0  0  0
    0.2826   -1.1405    0.4790 C   0  0  0  0  0  0  0  0  0  0  0  0
    1.3529   -2.0158   -0.1558 C   0  0  0  0  0  0  0  0  0  0  0  0
    2.1852   -1.0960   -1.1158 C   0  0  0  0  0  0  0  0  0  0  0  0
    1.6918    0.3841   -0.7589 C   0  0  0  0  0  0  0  0  0  0  0  0
    0.6837    0.9576   -1.7855 C   0  0  0  0  0  0  0  0  0  0  0  0
    2.8804    1.3823   -0.5972 C   0  0  0  0  0  0  0  0  0  0  0  0
    4.0250    1.1774   -1.5950 C   0  0  0  0  0  0  0  0  0  0  0  0
    3.5428    1.4299   -2.9134 O   0  0  0  0  0  0  0  0  0  0  0  0
    4.6914   -0.2351   -1.4904 C   0  0  0  0  0  0  0  0  0  0  0  0
    3.7129   -1.2388   -0.7773 C   0  0  0  0  0  0  0  0  0  0  0  0
    4.3094   -2.6577   -0.8396 C   0  0  0  0  0  0  0  0  0  0  0  0
    5.6972   -2.6627   -0.2473 C   0  0  0  0  0  0  0  0  0  0  0  0
    6.4454   -1.5556   -0.0322 C   0  0  0  0  0  0  0  0  0  0  0  0
    5.9740   -0.1764   -0.5422 C   0  0  0  0  0  0  0  0  0  0  0  0
    7.1607    0.5653   -1.1925 C   0  0  0  0  0  0  0  0  0  0  0  0
    8.3320    0.7045   -0.2331 C   0  0  0  0  0  0  0  0  0  0  0  0
    8.8655   -0.6719    0.1801 C   0  0  0  0  0  0  0  0  0  0  0  0
    7.7434   -1.5639    0.8186 C   0  0  0  0  0  0  0  0  0  0  0  0
    8.3465   -2.9807    1.0125 C   0  0  0  0  0  0  0  0  0  0  0  0
    7.3685   -1.0560    2.2356 C   0  0  0  0  0  0  0  0  0  0  0  0
    9.9121   -0.4976    1.1403 O   0  0  0  0  0  0  0  0  0  0  0  0
   11.2269   -0.1671    0.6612 C   0  0  0  0  0  0  0  0  0  0  0  0
   11.2617    0.1395   -0.7319 O   0  0  0  0  0  0  0  0  0  0  0  0
   12.5434    0.5119   -1.2532 C   0  0  0  0  0  0  0  0  0  0  0  0
   13.4700   -0.7040   -1.4418 C   0  0  0  0  0  0  0  0  0  0  0  0
   13.9938   -1.1908   -0.2056 O   0  0  0  0  0  0  0  0  0  0  0  0
   13.1400    1.7042   -0.4870 C   0  0  0  0  0  0  0  0  0  0  0  0
   13.0758    1.5509    1.0348 C   0  0  0  0  0  0  0  0  0  0  0  0
   11.7240    1.0225    1.5144 C   0  0  0  0  0  0  0  0  0  0  0  0
   11.8263    0.6853    2.9091 O   0  0  0  0  0  0  0  0  0  0  0  0
   14.1436    0.7159    1.5223 O   0  0  0  0  0  0  0  0  0  0  0  0
   14.4785    1.9763   -0.9102 O   0  0  0  0  0  0  0  0  0  0  0  0
    5.1352   -0.7170   -2.9023 C   0  0  0  0  0  0  0  0  0  0  0  0
    1.8618   -1.5358   -2.5546 C   0  0  0  0  0  0  0  0  0  0  0  0
    0.5337    1.5927    2.6934 C   0  0  0  0  0  0  0  0  0  0  0  0
   -6.6012   -3.0619   -3.2777 C   0  0  0  0  0  0  0  0  0  0  0  0
   -6.9738   -4.4630   -3.7765 C   0  0  0  0  0  0  0  0  0  0  0  0
   -6.1745   -5.5691   -3.0759 C   0  0  0  0  0  0  0  0  0  0  0  0
   -6.9060   -6.0043   -1.9135 O   0  0  0  0  0  0  0  0  0  0  0  0
   -8.3795   -4.7181   -3.5711 O   0  0  0  0  0  0  0  0  0  0  0  0
   -7.7693   -2.2235   -3.3576 O   0  0  0  0  0  0  0  0  0  0  0  0
   -4.0110   -8.0218   -2.5014 H   0  0  0  0  0  0  0  0  0  0  0  0
   -4.4192   -6.5329   -1.1095 H   0  0  0  0  0  0  0  0  0  0  0  0
   -2.9714   -5.7361   -1.7042 H   0  0  0  0  0  0  0  0  0  0  0  0
   -4.2700   -4.6952   -3.5634 H   0  0  0  0  0  0  0  0  0  0  0  0
   -6.7815   -3.5017   -1.1652 H   0  0  0  0  0  0  0  0  0  0  0  0
   -5.2699   -2.3637    0.4497 H   0  0  0  0  0  0  0  0  0  0  0  0
   -3.8625   -0.4078   -0.3285 H   0  0  0  0  0  0  0  0  0  0  0  0
   -6.6713    1.3391    1.1988 H   0  0  0  0  0  0  0  0  0  0  0  0
   -8.6649    0.2666    0.3070 H   0  0  0  0  0  0  0  0  0  0  0  0
   -7.8038   -2.0727    0.0304 H   0  0  0  0  0  0  0  0  0  0  0  0
   -6.8925   -2.0941    2.1373 H   0  0  0  0  0  0  0  0  0  0  0  0
   -8.5407    0.6623   -1.8337 H   0  0  0  0  0  0  0  0  0  0  0  0
   -7.1600    2.4977   -1.5801 H   0  0  0  0  0  0  0  0  0  0  0  0
   -6.4402    3.3090   -0.1937 H   0  0  0  0  0  0  0  0  0  0  0  0
   -8.4831    4.4512   -1.3519 H   0  0  0  0  0  0  0  0  0  0  0  0
  -11.1809    5.5994    0.6449 H   0  0  0  0  0  0  0  0  0  0  0  0
  -12.3702    2.7732    0.4859 H   0  0  0  0  0  0  0  0  0  0  0  0
  -13.0695    4.1110    1.4340 H   0  0  0  0  0  0  0  0  0  0  0  0
  -12.4502    4.2014   -1.3284 H   0  0  0  0  0  0  0  0  0  0  0  0
  -10.9461    4.4570    2.8561 H   0  0  0  0  0  0  0  0  0  0  0  0
   -8.2122    3.9825    2.4587 H   0  0  0  0  0  0  0  0  0  0  0  0
   -8.9254    6.1901    0.4755 H   0  0  0  0  0  0  0  0  0  0  0  0
   -6.8910    5.9946    1.5215 H   0  0  0  0  0  0  0  0  0  0  0  0
   -8.9460    5.4547    3.8807 H   0  0  0  0  0  0  0  0  0  0  0  0
   -9.7429    2.3853    1.3297 H   0  0  0  0  0  0  0  0  0  0  0  0
   -3.8718    1.7583    1.3453 H   0  0  0  0  0  0  0  0  0  0  0  0
   -5.9010    0.9292    3.1226 H   0  0  0  0  0  0  0  0  0  0  0  0
   -2.8939   -0.2872    4.5364 H   0  0  0  0  0  0  0  0  0  0  0  0
   -4.5520   -0.7561    4.1068 H   0  0  0  0  0  0  0  0  0  0  0  0
   -4.2811    0.3732    5.4156 H   0  0  0  0  0  0  0  0  0  0  0  0
   -2.1358    2.1744    4.0778 H   0  0  0  0  0  0  0  0  0  0  0  0
   -3.2585    3.2888    3.2661 H   0  0  0  0  0  0  0  0  0  0  0  0
   -3.5649    2.7918    4.9211 H   0  0  0  0  0  0  0  0  0  0  0  0
   -1.7461    0.2057    2.7522 H   0  0  0  0  0  0  0  0  0  0  0  0
   -2.2044   -0.5596    1.2611 H   0  0  0  0  0  0  0  0  0  0  0  0
   -1.5825    1.3112   -0.0703 H   0  0  0  0  0  0  0  0  0  0  0  0
   -1.6825    2.4249    1.2692 H   0  0  0  0  0  0  0  0  0  0  0  0
    0.5608    2.2941    0.7180 H   0  0  0  0  0  0  0  0  0  0  0  0
    1.8118    0.0045    1.3599 H   0  0  0  0  0  0  0  0  0  0  0  0
   -0.0455   -1.5570    1.4359 H   0  0  0  0  0  0  0  0  0  0  0  0
   -0.5821   -1.0732   -0.1884 H   0  0  0  0  0  0  0  0  0  0  0  0
    0.9069   -2.8794   -0.6611 H   0  0  0  0  0  0  0  0  0  0  0  0
    1.9744   -2.4126    0.6564 H   0  0  0  0  0  0  0  0  0  0  0  0
    1.1135    1.0479   -2.7857 H   0  0  0  0  0  0  0  0  0  0  0  0
    0.3554    1.9637   -1.5068 H   0  0  0  0  0  0  0  0  0  0  0  0
   -0.2126    0.3381   -1.8758 H   0  0  0  0  0  0  0  0  0  0  0  0
    2.5040    2.4089   -0.6929 H   0  0  0  0  0  0  0  0  0  0  0  0
    3.3019    1.3161    0.4137 H   0  0  0  0  0  0  0  0  0  0  0  0
    4.7713    1.9542   -1.4060 H   0  0  0  0  0  0  0  0  0  0  0  0
    3.2134    2.3443   -2.9391 H   0  0  0  0  0  0  0  0  0  0  0  0
    3.7505   -0.9772    0.2948 H   0  0  0  0  0  0  0  0  0  0  0  0
    3.7014   -3.3520   -0.2496 H   0  0  0  0  0  0  0  0  0  0  0  0
    4.3380   -3.0605   -1.8571 H   0  0  0  0  0  0  0  0  0  0  0  0
    6.0229   -3.6385    0.1017 H   0  0  0  0  0  0  0  0  0  0  0  0
    5.6811    0.3968    0.3490 H   0  0  0  0  0  0  0  0  0  0  0  0
    6.8657    1.5661   -1.5215 H   0  0  0  0  0  0  0  0  0  0  0  0
    7.5147    0.0319   -2.0818 H   0  0  0  0  0  0  0  0  0  0  0  0
    9.1173    1.2947   -0.7157 H   0  0  0  0  0  0  0  0  0  0  0  0
    8.0429    1.2879    0.6495 H   0  0  0  0  0  0  0  0  0  0  0  0
    9.2541   -1.2007   -0.7005 H   0  0  0  0  0  0  0  0  0  0  0  0
    8.5738   -3.4506    0.0490 H   0  0  0  0  0  0  0  0  0  0  0  0
    7.6698   -3.6433    1.5646 H   0  0  0  0  0  0  0  0  0  0  0  0
    9.2777   -2.9453    1.5889 H   0  0  0  0  0  0  0  0  0  0  0  0
    7.0252   -0.0169    2.2309 H   0  0  0  0  0  0  0  0  0  0  0  0
    6.5635   -1.6620    2.6697 H   0  0  0  0  0  0  0  0  0  0  0  0
    8.2189   -1.1143    2.9241 H   0  0  0  0  0  0  0  0  0  0  0  0
   11.8306   -1.0580    0.8633 H   0  0  0  0  0  0  0  0  0  0  0  0
   12.3377    0.8618   -2.2720 H   0  0  0  0  0  0  0  0  0  0  0  0
   12.9157   -1.5239   -1.9095 H   0  0  0  0  0  0  0  0  0  0  0  0
   14.3179   -0.4389   -2.0816 H   0  0  0  0  0  0  0  0  0  0  0  0
   14.5677   -1.9464   -0.4340 H   0  0  0  0  0  0  0  0  0  0  0  0
   12.5353    2.5832   -0.7429 H   0  0  0  0  0  0  0  0  0  0  0  0
   13.2683    2.5225    1.5039 H   0  0  0  0  0  0  0  0  0  0  0  0
   10.9822    1.8274    1.4337 H   0  0  0  0  0  0  0  0  0  0  0  0
   12.7575    0.4209    3.0561 H   0  0  0  0  0  0  0  0  0  0  0  0
   14.1481   -0.1081    0.9843 H   0  0  0  0  0  0  0  0  0  0  0  0
   15.0555    1.7912   -0.1394 H   0  0  0  0  0  0  0  0  0  0  0  0
    4.2954   -1.0059   -3.5347 H   0  0  0  0  0  0  0  0  0  0  0  0
    5.6720    0.0744   -3.4382 H   0  0  0  0  0  0  0  0  0  0  0  0
    5.8099   -1.5781   -2.8615 H   0  0  0  0  0  0  0  0  0  0  0  0
    0.7796   -1.6177   -2.7113 H   0  0  0  0  0  0  0  0  0  0  0  0
    2.2809   -2.5227   -2.7771 H   0  0  0  0  0  0  0  0  0  0  0  0
    2.2364   -0.8345   -3.3014 H   0  0  0  0  0  0  0  0  0  0  0  0
    0.3124    0.7062    3.2936 H   0  0  0  0  0  0  0  0  0  0  0  0
   -0.0116    2.4460    3.1088 H   0  0  0  0  0  0  0  0  0  0  0  0
    1.6017    1.8089    2.8079 H   0  0  0  0  0  0  0  0  0  0  0  0
   -5.8464   -2.6295   -3.9461 H   0  0  0  0  0  0  0  0  0  0  0  0
   -6.8002   -4.5006   -4.8583 H   0  0  0  0  0  0  0  0  0  0  0  0
   -6.0972   -6.4361   -3.7403 H   0  0  0  0  0  0  0  0  0  0  0  0
   -7.8462   -5.9625   -2.1949 H   0  0  0  0  0  0  0  0  0  0  0  0
   -8.7991   -3.8336   -3.6703 H   0  0  0  0  0  0  0  0  0  0  0  0
   -7.5774   -1.4289   -2.8033 H   0  0  0  0  0  0  0  0  0  0  0  0
  1  2  1  0
  2  3  1  0
  3  4  1  0
  4  5  1  0
  5  6  1  0
  6  7  1  0
  7  8  1  0
  8  9  1  0
  9 10  1  0
 10 11  1  0
 11 12  1  0
 12 13  1  0
 11 14  1  0
 10 15  1  0
 15 16  1  0
 16 17  1  0
 17 18  1  0
 18 19  1  0
 19 20  1  0
 20 21  1  0
 19 22  1  0
 22 23  1  0
 23 24  1  0
 24 25  1  0
 23 26  1  0
 22 27  1  0
  8 28  1  0
 28 29  1  0
 29 30  1  0
 30 31  1  0
 30 32  1  0
 30 33  1  0
 29 34  1  0
 34 35  1  0
 35 36  1  0
 36 37  1  0
 37 38  1  0
 38 39  1  0
 39 40  1  0
 40 41  1  0
 41 42  1  0
 41 43  1  0
 43 44  1  0
 44 45  1  0
 44 46  1  0
 46 47  1  0
 47 48  1  0
 48 49  1  0
 49 50  2  0
 50 51  1  0
 51 52  1  0
 52 53  1  0
 53 54  1  0
 54 55  1  0
 55 56  1  0
 55 57  1  0
 54 58  1  0
 58 59  1  0
 59 60  1  0
 60 61  1  0
 61 62  1  0
 62 63  1  0
 61 64  1  0
 64 65  1  0
 65 66  1  0
 66 67  1  0
 65 68  1  0
 64 69  1  0
 46 70  1  0
 40 71  1  0
 36 72  1  0
  5 73  1  0
 73 74  1  0
 74 75  1  0
 75 76  1  0
 74 77  1  0
 73 78  1  0
 75  3  1  0
 12  7  1  0
 24 17  1  0
 41 37  1  0
 51 46  1  0
 66 59  1  0
 47 40  1  0
 55 50  1  0
  1 79  1  0
  2 80  1  0
  2 81  1  0
  3 82  1  0
  5 83  1  0
  7 84  1  0
  8 85  1  0
 10 86  1  0
 11 87  1  0
 12 88  1  0
 13 89  1  0
 14 90  1  0
 15 91  1  0
 15 92  1  0
 17 93  1  0
 19 94  1  0
 20 95  1  0
 20 96  1  0
 21 97  1  0
 22 98  1  0
 23 99  1  0
 24100  1  0
 25101  1  0
 26102  1  0
 27103  1  0
 29104  1  0
 31105  1  0
 32106  1  0
 32107  1  0
 32108  1  0
 33109  1  0
 33110  1  0
 33111  1  0
 34112  1  0
 34113  1  0
 35114  1  0
 35115  1  0
 36116  1  0
 37117  1  0
 38118  1  0
 38119  1  0
 39120  1  0
 39121  1  0
 42122  1  0
 42123  1  0
 42124  1  0
 43125  1  0
 43126  1  0
 44127  1  0
 45128  1  0
 47129  1  0
 48130  1  0
 48131  1  0
 49132  1  0
 51133  1  0
 52134  1  0
 52135  1  0
 53136  1  0
 53137  1  0
 54138  1  0
 56139  1  0
 56140  1  0
 56141  1  0
 57142  1  0
 57143  1  0
 57144  1  0
 59145  1  0
 61146  1  0
 62147  1  0
 62148  1  0
 63149  1  0
 64150  1  0
 65151  1  0
 66152  1  0
 67153  1  0
 68154  1  0
 69155  1  0
 70156  1  0
 70157  1  0
 70158  1  0
 71159  1  0
 71160  1  0
 71161  1  0
 72162  1  0
 72163  1  0
 72164  1  0
 73165  1  0
 74166  1  0
 75167  1  0
 76168  1  0
 77169  1  0
 78170  1  0
M  END
