
     RDKit          3D

 24 23  0  0  0  0  0  0  0  0999 V2000
   -3.8409    0.4883   -0.3473 O   0  0  0  0  0  0  0  0  0  0  0  0
   -2.4980    0.7175    0.1006 C   0  0  0  0  0  0  0  0  0  0  0  0
   -1.5580    0.0552   -0.9043 C   0  0  0  0  0  0  0  0  0  0  0  0
   -0.0478    0.2838   -0.7036 C   0  0  0  0  0  0  0  0  0  0  0  0
    0.4793   -0.0426    0.6993 C   0  0  0  0  0  0  0  0  0  0  0  0
    1.9929    0.1711    0.7824 C   0  0  0  0  0  0  0  0  0  0  0  0
    2.4556    1.1203    1.4318 O   0  0  0  0  0  0  0  0  0  0  0  0
    2.9079   -0.8189    0.0768 C   0  0  0  0  0  0  0  0  0  0  0  0
    4.1981   -0.8245    0.6757 O   0  0  0  0  0  0  0  0  0  0  0  0
   -0.1310    0.8266    1.6667 O   0  0  0  0  0  0  0  0  0  0  0  0
    0.6248   -0.5467   -1.6699 O   0  0  0  0  0  0  0  0  0  0  0  0
   -1.7940   -1.3706   -0.9047 O   0  0  0  0  0  0  0  0  0  0  0  0
   -4.4246    0.9133    0.3061 H   0  0  0  0  0  0  0  0  0  0  0  0
   -2.3277    1.7950    0.1612 H   0  0  0  0  0  0  0  0  0  0  0  0
   -2.4246    0.2556    1.0890 H   0  0  0  0  0  0  0  0  0  0  0  0
   -1.8254    0.3803   -1.9171 H   0  0  0  0  0  0  0  0  0  0  0  0
    0.1840    1.3287   -0.9422 H   0  0  0  0  0  0  0  0  0  0  0  0
    0.2666   -1.0766    0.9881 H   0  0  0  0  0  0  0  0  0  0  0  0
    2.4960   -1.8278    0.1527 H   0  0  0  0  0  0  0  0  0  0  0  0
    3.0213   -0.5336   -0.9704 H   0  0  0  0  0  0  0  0  0  0  0  0
    4.3863    0.1013    0.9264 H   0  0  0  0  0  0  0  0  0  0  0  0
    0.5918    1.3826    2.0345 H   0  0  0  0  0  0  0  0  0  0  0  0
    0.0380   -1.3244   -1.7962 H   0  0  0  0  0  0  0  0  0  0  0  0
   -2.7707   -1.4538   -0.9357 H   0  0  0  0  0  0  0  0  0  0  0  0
  1  2  1  0
  2  3  1  0
  3  4  1  0
  4  5  1  0
  5  6  1  0
  6  7  2  0
  6  8  1  0
  8  9  1  0
  5 10  1  0
  4 11  1  0
  3 12  1  0
  1 13  1  0
  2 14  1  0
  2 15  1  0
  3 16  1  0
  4 17  1  0
  5 18  1  0
  8 19  1  0
  8 20  1  0
  9 21  1  0
 10 22  1  0
 11 23  1  0
 12 24  1  0
M  END
