
     RDKit          3D

210219  0  0  0  0  0  0  0  0999 V2000
   -0.8636    3.3754   -1.2331 C   0  0  0  0  0  0  0  0  0  0  0  0
   -1.5947    2.2089   -0.8749 O   0  0  0  0  0  0  0  0  0  0  0  0
   -0.8955    1.4188    0.0989 C   0  0  0  0  0  0  0  0  0  0  0  0
   -0.0781    0.3455   -0.6185 C   0  0  0  0  0  0  0  0  0  0  0  0
    0.6507   -0.5381    0.3971 C   0  0  0  0  0  0  0  0  0  0  0  0
    0.2250   -0.2643    1.7330 O   0  0  0  0  0  0  0  0  0  0  0  0
   -1.2033   -0.3595    1.8747 C   0  0  0  0  0  0  0  0  0  0  0  0
   -1.9209    0.7280    1.0274 C   0  0  0  0  0  0  0  0  0  0  0  0
   -2.5543    1.7243    1.8443 O   0  0  0  0  0  0  0  0  0  0  0  0
   -3.9850    1.6784    1.8255 C   0  0  0  0  0  0  0  0  0  0  0  0
   -4.5360    2.3390    0.5592 C   0  0  0  0  0  0  0  0  0  0  0  0
   -6.0622    2.2731    0.5428 C   0  0  0  0  0  0  0  0  0  0  0  0
   -6.5636    2.7715   -0.7115 O   0  0  0  0  0  0  0  0  0  0  0  0
   -6.7314    4.1817   -0.7070 C   0  0  0  0  0  0  0  0  0  0  0  0
   -6.4765    0.7971    0.6760 C   0  0  0  0  0  0  0  0  0  0  0  0
   -5.8705    0.1797    1.9517 C   0  0  0  0  0  0  0  0  0  0  0  0
   -4.4496    0.3420    1.9905 O   0  0  0  0  0  0  0  0  0  0  0  0
   -6.5149    0.6581    3.2533 C   0  0  0  0  0  0  0  0  0  0  0  0
   -7.9109    0.6881    0.6917 O   0  0  0  0  0  0  0  0  0  0  0  0
   -8.3583   -0.5290    0.0802 C   0  0  0  0  0  0  0  0  0  0  0  0
   -8.9361   -0.2575   -1.3074 C   0  0  0  0  0  0  0  0  0  0  0  0
  -10.3588    0.3093   -1.2821 C   0  0  0  0  0  0  0  0  0  0  0  0
  -11.2411   -0.6162   -1.9321 O   0  0  0  0  0  0  0  0  0  0  0  0
  -11.1719   -0.5640   -3.3533 C   0  0  0  0  0  0  0  0  0  0  0  0
  -10.8509    0.5845    0.1580 C   0  0  0  0  0  0  0  0  0  0  0  0
  -10.5444   -0.6035    1.0986 C   0  0  0  0  0  0  0  0  0  0  0  0
   -9.2663   -1.2196    0.9182 O   0  0  0  0  0  0  0  0  0  0  0  0
  -11.5792   -1.7257    1.0370 C   0  0  0  0  0  0  0  0  0  0  0  0
  -12.2466    0.9143    0.2905 O   0  0  0  0  0  0  0  0  0  0  0  0
  -12.6617    2.1323   -0.3377 C   0  0  0  0  0  0  0  0  0  0  0  0
  -13.0511    1.9310   -1.6878 O   0  0  0  0  0  0  0  0  0  0  0  0
  -14.0974    0.9528   -1.8527 C   0  0  0  0  0  0  0  0  0  0  0  0
  -14.6751    1.1927   -3.2484 C   0  0  0  0  0  0  0  0  0  0  0  0
  -15.1585    0.9776   -0.7271 C   0  0  0  0  0  0  0  0  0  0  0  0
  -15.2127    2.3713   -0.0973 C   0  0  0  0  0  0  0  0  0  0  0  0
  -13.8323    2.7417    0.4864 C   0  0  0  0  0  0  0  0  0  0  0  0
  -13.7149    2.3815    1.8729 O   0  0  0  0  0  0  0  0  0  0  0  0
  -16.2770    2.4032    0.8719 O   0  0  0  0  0  0  0  0  0  0  0  0
  -16.5713    3.7129    1.3362 C   0  0  0  0  0  0  0  0  0  0  0  0
  -16.4584    0.6501   -1.2479 O   0  0  0  0  0  0  0  0  0  0  0  0
  -16.9867   -0.5499   -0.6666 C   0  0  0  0  0  0  0  0  0  0  0  0
  -16.3372   -1.6837   -1.2400 O   0  0  0  0  0  0  0  0  0  0  0  0
  -16.7646   -2.9458   -0.6852 C   0  0  0  0  0  0  0  0  0  0  0  0
  -15.8013   -3.4068    0.4208 C   0  0  0  0  0  0  0  0  0  0  0  0
  -15.8563   -2.5849    1.5847 O   0  0  0  0  0  0  0  0  0  0  0  0
  -18.2546   -2.9662   -0.2717 C   0  0  0  0  0  0  0  0  0  0  0  0
  -19.0265   -1.9995   -1.1655 C   0  0  0  0  0  0  0  0  0  0  0  0
  -18.5042   -0.5698   -0.9889 C   0  0  0  0  0  0  0  0  0  0  0  0
  -18.8173    0.1451   -2.2061 O   0  0  0  0  0  0  0  0  0  0  0  0
  -20.4200   -2.0559   -0.8302 O   0  0  0  0  0  0  0  0  0  0  0  0
  -18.4550   -2.5722    1.0970 O   0  0  0  0  0  0  0  0  0  0  0  0
   -1.4973   -0.3106    3.3670 C   0  0  0  0  0  0  0  0  0  0  0  0
    2.0441   -0.2811    0.2362 O   0  0  0  0  0  0  0  0  0  0  0  0
    2.8745   -0.9135    1.2244 C   0  0  0  0  0  0  0  0  0  0  0  0
    3.7152    0.1955    1.8763 C   0  0  0  0  0  0  0  0  0  0  0  0
    2.8919    1.1946    2.4929 O   0  0  0  0  0  0  0  0  0  0  0  0
    4.6254    0.8792    0.8504 C   0  0  0  0  0  0  0  0  0  0  0  0
    5.0198   -0.0643   -0.2905 C   0  0  0  0  0  0  0  0  0  0  0  0
    5.0973   -1.3931    0.2131 O   0  0  0  0  0  0  0  0  0  0  0  0
    3.8347   -1.9471    0.5990 C   0  0  0  0  0  0  0  0  0  0  0  0
    3.2356   -2.7351   -0.5604 C   0  0  0  0  0  0  0  0  0  0  0  0
    6.2927    0.3647   -0.7843 O   0  0  0  0  0  0  0  0  0  0  0  0
    6.7190   -0.2877   -1.9883 C   0  0  0  0  0  0  0  0  0  0  0  0
    7.7594    0.6308   -2.6515 C   0  0  0  0  0  0  0  0  0  0  0  0
    9.1029    0.6882   -1.8945 C   0  0  0  0  0  0  0  0  0  0  0  0
    9.7259   -0.7141   -1.6013 C   0  0  0  0  0  0  0  0  0  0  0  0
    8.6143   -1.5240   -0.8695 C   0  0  0  0  0  0  0  0  0  0  0  0
    7.3389   -1.6725   -1.7135 C   0  0  0  0  0  0  0  0  0  0  0  0
    9.1465   -2.8552   -0.3536 C   0  0  0  0  0  0  0  0  0  0  0  0
   10.3466   -2.6642    0.5882 C   0  0  0  0  0  0  0  0  0  0  0  0
   10.8126   -1.1918    0.7343 C   0  0  0  0  0  0  0  0  0  0  0  0
   10.9983   -0.5321   -0.6556 C   0  0  0  0  0  0  0  0  0  0  0  0
   12.3422   -1.0084   -1.2501 C   0  0  0  0  0  0  0  0  0  0  0  0
   13.5582   -0.6629   -0.3654 C   0  0  0  0  0  0  0  0  0  0  0  0
   13.6767    0.7782   -0.3178 O   0  0  0  0  0  0  0  0  0  0  0  0
   14.2803    1.3722   -1.3934 C   0  0  0  0  0  0  0  0  0  0  0  0
   14.6604    0.8097   -2.4106 O   0  0  0  0  0  0  0  0  0  0  0  0
   14.4049    2.8500   -1.1559 C   0  0  0  0  0  0  0  0  0  0  0  0
   13.4558   -1.2773    1.0731 C   0  0  0  0  0  0  0  0  0  0  0  0
   12.0350   -0.9988    1.6741 C   0  0  0  0  0  0  0  0  0  0  0  0
   11.8358   -1.8109    2.8521 O   0  0  0  0  0  0  0  0  0  0  0  0
   12.1508    0.4554    2.2074 C   0  0  0  0  0  0  0  0  0  0  0  0
   13.6392    0.7076    2.5172 C   0  0  0  0  0  0  0  0  0  0  0  0
   14.3728   -0.6024    2.1811 C   0  0  0  0  0  0  0  0  0  0  0  0
   14.3086   -1.3818    3.4139 O   0  0  0  0  0  0  0  0  0  0  0  0
   15.9110   -0.4897    1.9198 C   0  0  0  0  0  0  0  0  0  0  0  0
   16.2523   -0.2010    0.5559 O   0  0  0  0  0  0  0  0  0  0  0  0
   17.4106   -0.7943    0.1142 C   0  0  0  0  0  0  0  0  0  0  0  0
   18.1634   -1.4701    0.8045 O   0  0  0  0  0  0  0  0  0  0  0  0
   17.6311   -0.5105   -1.3618 C   0  0  0  0  0  0  0  0  0  0  0  0
   18.2037    0.8920   -1.5836 C   0  0  0  0  0  0  0  0  0  0  0  0
   19.6315    1.0852   -1.0905 C   0  0  0  0  0  0  0  0  0  0  0  0
   18.4588   -1.6184   -2.0103 C   0  0  0  0  0  0  0  0  0  0  0  0
   16.5860    0.5592    2.8147 C   0  0  0  0  0  0  0  0  0  0  0  0
   13.8062   -2.7846    0.9842 C   0  0  0  0  0  0  0  0  0  0  0  0
   10.1070   -1.3607   -2.9581 C   0  0  0  0  0  0  0  0  0  0  0  0
    0.0909    3.1078   -1.6933 H   0  0  0  0  0  0  0  0  0  0  0  0
   -1.4516    3.9501   -1.9503 H   0  0  0  0  0  0  0  0  0  0  0  0
   -0.6947    3.9994   -0.3517 H   0  0  0  0  0  0  0  0  0  0  0  0
   -0.2458    2.0645    0.7017 H   0  0  0  0  0  0  0  0  0  0  0  0
    0.6152    0.7888   -1.3411 H   0  0  0  0  0  0  0  0  0  0  0  0
   -0.7561   -0.2775   -1.2161 H   0  0  0  0  0  0  0  0  0  0  0  0
    0.4767   -1.5983    0.1712 H   0  0  0  0  0  0  0  0  0  0  0  0
   -1.5093   -1.3437    1.4983 H   0  0  0  0  0  0  0  0  0  0  0  0
   -2.6673    0.2401    0.3906 H   0  0  0  0  0  0  0  0  0  0  0  0
   -4.2998    2.2698    2.6929 H   0  0  0  0  0  0  0  0  0  0  0  0
   -4.1717    1.7995   -0.3244 H   0  0  0  0  0  0  0  0  0  0  0  0
   -4.1531    3.3593    0.4449 H   0  0  0  0  0  0  0  0  0  0  0  0
   -6.4977    2.8549    1.3643 H   0  0  0  0  0  0  0  0  0  0  0  0
   -7.1436    4.4875   -1.6706 H   0  0  0  0  0  0  0  0  0  0  0  0
   -5.7839    4.7127   -0.5511 H   0  0  0  0  0  0  0  0  0  0  0  0
   -7.4432    4.4775    0.0710 H   0  0  0  0  0  0  0  0  0  0  0  0
   -6.0738    0.2790   -0.2110 H   0  0  0  0  0  0  0  0  0  0  0  0
   -6.0423   -0.9095    1.9029 H   0  0  0  0  0  0  0  0  0  0  0  0
   -6.0378    0.1805    4.1137 H   0  0  0  0  0  0  0  0  0  0  0  0
   -6.4095    1.7385    3.3959 H   0  0  0  0  0  0  0  0  0  0  0  0
   -7.5821    0.4209    3.2751 H   0  0  0  0  0  0  0  0  0  0  0  0
   -7.5159   -1.2203   -0.0467 H   0  0  0  0  0  0  0  0  0  0  0  0
   -8.9292   -1.2058   -1.8541 H   0  0  0  0  0  0  0  0  0  0  0  0
   -8.2778    0.4430   -1.8406 H   0  0  0  0  0  0  0  0  0  0  0  0
  -10.3915    1.2554   -1.8347 H   0  0  0  0  0  0  0  0  0  0  0  0
  -10.1643   -0.7859   -3.7131 H   0  0  0  0  0  0  0  0  0  0  0  0
  -11.4881    0.4184   -3.7141 H   0  0  0  0  0  0  0  0  0  0  0  0
  -11.8534   -1.3192   -3.7581 H   0  0  0  0  0  0  0  0  0  0  0  0
  -10.2868    1.4493    0.5404 H   0  0  0  0  0  0  0  0  0  0  0  0
  -10.5667   -0.2178    2.1272 H   0  0  0  0  0  0  0  0  0  0  0  0
  -11.3419   -2.4970    1.7819 H   0  0  0  0  0  0  0  0  0  0  0  0
  -12.5955   -1.3680    1.2320 H   0  0  0  0  0  0  0  0  0  0  0  0
  -11.5633   -2.2276    0.0652 H   0  0  0  0  0  0  0  0  0  0  0  0
  -11.8311    2.8466   -0.3200 H   0  0  0  0  0  0  0  0  0  0  0  0
  -13.6408   -0.0419   -1.8609 H   0  0  0  0  0  0  0  0  0  0  0  0
  -13.8762    1.1763   -3.9993 H   0  0  0  0  0  0  0  0  0  0  0  0
  -15.4115    0.4300   -3.5205 H   0  0  0  0  0  0  0  0  0  0  0  0
  -15.1431    2.1817   -3.3103 H   0  0  0  0  0  0  0  0  0  0  0  0
  -14.8660    0.2570    0.0537 H   0  0  0  0  0  0  0  0  0  0  0  0
  -15.4756    3.0769   -0.8994 H   0  0  0  0  0  0  0  0  0  0  0  0
  -13.7501    3.8323    0.4459 H   0  0  0  0  0  0  0  0  0  0  0  0
  -13.1015    1.6152    1.9116 H   0  0  0  0  0  0  0  0  0  0  0  0
  -17.4503    3.6553    1.9854 H   0  0  0  0  0  0  0  0  0  0  0  0
  -16.8069    4.3784    0.4983 H   0  0  0  0  0  0  0  0  0  0  0  0
  -15.7421    4.1240    1.9213 H   0  0  0  0  0  0  0  0  0  0  0  0
  -16.8472   -0.5371    0.4209 H   0  0  0  0  0  0  0  0  0  0  0  0
  -16.6490   -3.6492   -1.5198 H   0  0  0  0  0  0  0  0  0  0  0  0
  -16.0371   -4.4347    0.7238 H   0  0  0  0  0  0  0  0  0  0  0  0
  -14.7676   -3.3767    0.0652 H   0  0  0  0  0  0  0  0  0  0  0  0
  -16.8067   -2.5145    1.8248 H   0  0  0  0  0  0  0  0  0  0  0  0
  -18.6479   -3.9848   -0.3510 H   0  0  0  0  0  0  0  0  0  0  0  0
  -18.9407   -2.3247   -2.2087 H   0  0  0  0  0  0  0  0  0  0  0  0
  -19.0403   -0.0349   -0.1943 H   0  0  0  0  0  0  0  0  0  0  0  0
  -18.0526    0.7512   -2.3315 H   0  0  0  0  0  0  0  0  0  0  0  0
  -20.8488   -1.4060   -1.4199 H   0  0  0  0  0  0  0  0  0  0  0  0
  -19.4318   -2.5026    1.1947 H   0  0  0  0  0  0  0  0  0  0  0  0
   -2.5554   -0.4832    3.5844 H   0  0  0  0  0  0  0  0  0  0  0  0
   -1.1962    0.6489    3.8014 H   0  0  0  0  0  0  0  0  0  0  0  0
   -0.9166   -1.0775    3.8911 H   0  0  0  0  0  0  0  0  0  0  0  0
    2.2585   -1.4225    1.9762 H   0  0  0  0  0  0  0  0  0  0  0  0
    4.3316   -0.2404    2.6708 H   0  0  0  0  0  0  0  0  0  0  0  0
    2.0802    0.7452    2.8146 H   0  0  0  0  0  0  0  0  0  0  0  0
    5.5143    1.2511    1.3718 H   0  0  0  0  0  0  0  0  0  0  0  0
    4.1569    1.7803    0.4307 H   0  0  0  0  0  0  0  0  0  0  0  0
    4.2868   -0.0034   -1.1043 H   0  0  0  0  0  0  0  0  0  0  0  0
    4.0886   -2.6708    1.3853 H   0  0  0  0  0  0  0  0  0  0  0  0
    3.0312   -2.1004   -1.4297 H   0  0  0  0  0  0  0  0  0  0  0  0
    2.3087   -3.2357   -0.2623 H   0  0  0  0  0  0  0  0  0  0  0  0
    3.9460   -3.4987   -0.9017 H   0  0  0  0  0  0  0  0  0  0  0  0
    5.8640   -0.3850   -2.6706 H   0  0  0  0  0  0  0  0  0  0  0  0
    7.9382    0.3044   -3.6827 H   0  0  0  0  0  0  0  0  0  0  0  0
    7.3630    1.6530   -2.7116 H   0  0  0  0  0  0  0  0  0  0  0  0
    9.8113    1.2997   -2.4719 H   0  0  0  0  0  0  0  0  0  0  0  0
    8.9394    1.2201   -0.9455 H   0  0  0  0  0  0  0  0  0  0  0  0
    8.2999   -0.9607    0.0222 H   0  0  0  0  0  0  0  0  0  0  0  0
    7.5393   -2.1865   -2.6580 H   0  0  0  0  0  0  0  0  0  0  0  0
    6.6329   -2.3224   -1.1903 H   0  0  0  0  0  0  0  0  0  0  0  0
    9.4233   -3.5142   -1.1842 H   0  0  0  0  0  0  0  0  0  0  0  0
    8.3542   -3.3839    0.1927 H   0  0  0  0  0  0  0  0  0  0  0  0
   11.1586   -3.3115    0.2420 H   0  0  0  0  0  0  0  0  0  0  0  0
   10.0645   -3.0581    1.5739 H   0  0  0  0  0  0  0  0  0  0  0  0
    9.9866   -0.6713    1.2424 H   0  0  0  0  0  0  0  0  0  0  0  0
   11.1090    0.5466   -0.4879 H   0  0  0  0  0  0  0  0  0  0  0  0
   12.4886   -0.5227   -2.2200 H   0  0  0  0  0  0  0  0  0  0  0  0
   12.3241   -2.0869   -1.4365 H   0  0  0  0  0  0  0  0  0  0  0  0
   14.4484   -1.0818   -0.8526 H   0  0  0  0  0  0  0  0  0  0  0  0
   14.9708    3.0352   -0.2369 H   0  0  0  0  0  0  0  0  0  0  0  0
   13.4086    3.2993   -1.0993 H   0  0  0  0  0  0  0  0  0  0  0  0
   14.9508    3.3011   -1.9931 H   0  0  0  0  0  0  0  0  0  0  0  0
   10.9081   -1.7111    3.1285 H   0  0  0  0  0  0  0  0  0  0  0  0
   11.8060    1.2003    1.4824 H   0  0  0  0  0  0  0  0  0  0  0  0
   11.5530    0.5959    3.1177 H   0  0  0  0  0  0  0  0  0  0  0  0
   13.9983    1.5562    1.9299 H   0  0  0  0  0  0  0  0  0  0  0  0
   13.7517    0.9766    3.5742 H   0  0  0  0  0  0  0  0  0  0  0  0
   13.3707   -1.6434    3.5383 H   0  0  0  0  0  0  0  0  0  0  0  0
   16.3303   -1.4691    2.2005 H   0  0  0  0  0  0  0  0  0  0  0  0
   16.6459   -0.5616   -1.8395 H   0  0  0  0  0  0  0  0  0  0  0  0
   17.5670    1.6327   -1.0814 H   0  0  0  0  0  0  0  0  0  0  0  0
   18.1631    1.1291   -2.6518 H   0  0  0  0  0  0  0  0  0  0  0  0
   19.7236    0.8559   -0.0240 H   0  0  0  0  0  0  0  0  0  0  0  0
   20.3373    0.4540   -1.6408 H   0  0  0  0  0  0  0  0  0  0  0  0
   19.9454    2.1264   -1.2341 H   0  0  0  0  0  0  0  0  0  0  0  0
   18.5478   -1.4517   -3.0874 H   0  0  0  0  0  0  0  0  0  0  0  0
   17.9740   -2.5899   -1.8600 H   0  0  0  0  0  0  0  0  0  0  0  0
   19.4621   -1.6958   -1.5808 H   0  0  0  0  0  0  0  0  0  0  0  0
   16.3672    0.3913    3.8723 H   0  0  0  0  0  0  0  0  0  0  0  0
   17.6706    0.5326    2.6794 H   0  0  0  0  0  0  0  0  0  0  0  0
   16.2705    1.5695    2.5411 H   0  0  0  0  0  0  0  0  0  0  0  0
   14.8693   -2.9202    0.7464 H   0  0  0  0  0  0  0  0  0  0  0  0
   13.6124   -3.3228    1.9198 H   0  0  0  0  0  0  0  0  0  0  0  0
   13.2508   -3.2959    0.1992 H   0  0  0  0  0  0  0  0  0  0  0  0
   10.7997   -0.7217   -3.5182 H   0  0  0  0  0  0  0  0  0  0  0  0
    9.2536   -1.5114   -3.6225 H   0  0  0  0  0  0  0  0  0  0  0  0
   10.5733   -2.3392   -2.8243 H   0  0  0  0  0  0  0  0  0  0  0  0
  1  2  1  0
  2  3  1  0
  3  4  1  0
  4  5  1  0
  5  6  1  0
  6  7  1  0
  7  8  1  0
  8  9  1  0
  9 10  1  0
 10 11  1  0
 11 12  1  0
 12 13  1  0
 13 14  1  0
 12 15  1  0
 15 16  1  0
 16 17  1  0
 16 18  1  0
 15 19  1  0
 19 20  1  0
 20 21  1  0
 21 22  1  0
 22 23  1  0
 23 24  1  0
 22 25  1  0
 25 26  1  0
 26 27  1  0
 26 28  1  0
 25 29  1  0
 29 30  1  0
 30 31  1  0
 31 32  1  0
 32 33  1  0
 32 34  1  0
 34 35  1  0
 35 36  1  0
 36 37  1  0
 35 38  1  0
 38 39  1  0
 34 40  1  0
 40 41  1  0
 41 42  1  0
 42 43  1  0
 43 44  1  0
 44 45  1  0
 43 46  1  0
 46 47  1  0
 47 48  1  0
 48 49  1  0
 47 50  1  0
 46 51  1  0
  7 52  1  0
  5 53  1  0
 53 54  1  0
 54 55  1  0
 55 56  1  0
 55 57  1  0
 57 58  1  0
 58 59  1  0
 59 60  1  0
 60 61  1  0
 58 62  1  0
 62 63  1  0
 63 64  1  0
 64 65  1  0
 65 66  1  0
 66 67  1  0
 67 68  1  0
 67 69  1  0
 69 70  1  0
 70 71  1  0
 71 72  1  0
 72 73  1  0
 73 74  1  0
 74 75  1  0
 75 76  1  0
 76 77  2  0
 76 78  1  0
 74 79  1  0
 79 80  1  0
 80 81  1  0
 80 82  1  0
 82 83  1  0
 83 84  1  0
 84 85  1  0
 84 86  1  0
 86 87  1  0
 87 88  1  0
 88 89  2  0
 88 90  1  0
 90 91  1  0
 91 92  1  0
 90 93  1  0
 86 94  1  0
 79 95  1  0
 66 96  1  0
  8  3  1  0
 17 10  1  0
 27 20  1  0
 36 30  1  0
 48 41  1  0
 60 54  1  0
 68 63  1  0
 80 71  1  0
 72 66  1  0
 84 79  1  0
  1 97  1  0
  1 98  1  0
  1 99  1  0
  3100  1  0
  4101  1  0
  4102  1  0
  5103  1  0
  7104  1  0
  8105  1  0
 10106  1  0
 11107  1  0
 11108  1  0
 12109  1  0
 14110  1  0
 14111  1  0
 14112  1  0
 15113  1  0
 16114  1  0
 18115  1  0
 18116  1  0
 18117  1  0
 20118  1  0
 21119  1  0
 21120  1  0
 22121  1  0
 24122  1  0
 24123  1  0
 24124  1  0
 25125  1  0
 26126  1  0
 28127  1  0
 28128  1  0
 28129  1  0
 30130  1  0
 32131  1  0
 33132  1  0
 33133  1  0
 33134  1  0
 34135  1  0
 35136  1  0
 36137  1  0
 37138  1  0
 39139  1  0
 39140  1  0
 39141  1  0
 41142  1  0
 43143  1  0
 44144  1  0
 44145  1  0
 45146  1  0
 46147  1  0
 47148  1  0
 48149  1  0
 49150  1  0
 50151  1  0
 51152  1  0
 52153  1  0
 52154  1  0
 52155  1  0
 54156  1  0
 55157  1  0
 56158  1  0
 57159  1  0
 57160  1  0
 58161  1  0
 60162  1  0
 61163  1  0
 61164  1  0
 61165  1  0
 63166  1  0
 64167  1  0
 64168  1  0
 65169  1  0
 65170  1  0
 67171  1  0
 68172  1  0
 68173  1  0
 69174  1  0
 69175  1  0
 70176  1  0
 70177  1  0
 71178  1  0
 72179  1  0
 73180  1  0
 73181  1  0
 74182  1  0
 78183  1  0
 78184  1  0
 78185  1  0
 81186  1  0
 82187  1  0
 82188  1  0
 83189  1  0
 83190  1  0
 85191  1  0
 86192  1  0
 90193  1  0
 91194  1  0
 91195  1  0
 92196  1  0
 92197  1  0
 92198  1  0
 93199  1  0
 93200  1  0
 93201  1  0
 94202  1  0
 94203  1  0
 94204  1  0
 95205  1  0
 95206  1  0
 95207  1  0
 96208  1  0
 96209  1  0
 96210  1  0
M  END
