
     RDKit          3D

 23 23  0  0  0  0  0  0  0  0999 V2000
   -4.4225    0.1069   -0.5369 C   0  0  0  0  0  0  0  0  0  0  0  0
   -2.9610    0.3121   -0.3021 C   0  0  0  0  0  0  0  0  0  0  0  0
   -2.0564   -0.6792   -0.3365 C   0  0  0  0  0  0  0  0  0  0  0  0
   -0.6182   -0.4956   -0.0980 C   0  0  0  0  0  0  0  0  0  0  0  0
    0.0801    0.6300   -0.5517 C   0  0  0  0  0  0  0  0  0  0  0  0
    1.4585    0.7576   -0.3335 C   0  0  0  0  0  0  0  0  0  0  0  0
    2.1589   -0.2460    0.3340 C   0  0  0  0  0  0  0  0  0  0  0  0
    1.4698   -1.3772    0.7742 C   0  0  0  0  0  0  0  0  0  0  0  0
    0.0946   -1.5057    0.5561 C   0  0  0  0  0  0  0  0  0  0  0  0
    3.4979   -0.2473    0.6109 O   0  0  0  0  0  0  0  0  0  0  0  0
    4.2415    0.8895    0.1907 C   0  0  0  0  0  0  0  0  0  0  0  0
   -4.9889    0.4199    0.3455 H   0  0  0  0  0  0  0  0  0  0  0  0
   -4.7507    0.7103   -1.3887 H   0  0  0  0  0  0  0  0  0  0  0  0
   -4.6664   -0.9395   -0.7457 H   0  0  0  0  0  0  0  0  0  0  0  0
   -2.6563    1.3317   -0.0794 H   0  0  0  0  0  0  0  0  0  0  0  0
   -2.3757   -1.7009   -0.5307 H   0  0  0  0  0  0  0  0  0  0  0  0
   -0.4377    1.4187   -1.0920 H   0  0  0  0  0  0  0  0  0  0  0  0
    1.9505    1.6505   -0.7037 H   0  0  0  0  0  0  0  0  0  0  0  0
    2.0079   -2.1676    1.2916 H   0  0  0  0  0  0  0  0  0  0  0  0
   -0.4128   -2.3994    0.9117 H   0  0  0  0  0  0  0  0  0  0  0  0
    3.8826    1.8002    0.6818 H   0  0  0  0  0  0  0  0  0  0  0  0
    4.2217    0.9932   -0.8992 H   0  0  0  0  0  0  0  0  0  0  0  0
    5.2826    0.7378    0.4915 H   0  0  0  0  0  0  0  0  0  0  0  0
  1  2  1  0
  2  3  2  3
  3  4  1  0
  4  5  2  0
  5  6  1  0
  6  7  2  0
  7  8  1  0
  8  9  2  0
  7 10  1  0
 10 11  1  0
  9  4  1  0
  1 12  1  0
  1 13  1  0
  1 14  1  0
  2 15  1  0
  3 16  1  0
  5 17  1  0
  6 18  1  0
  8 19  1  0
  9 20  1  0
 11 21  1  0
 11 22  1  0
 11 23  1  0
M  END
