
     RDKit          3D

 18 18  0  0  0  0  0  0  0  0999 V2000
    4.5504    0.7445   -0.8302 O   0  0  0  0  0  0  0  0  0  0  0  0
    3.6641   -0.0384   -0.5121 C   0  0  0  0  0  0  0  0  0  0  0  0
    2.2556    0.3949   -0.4179 C   0  0  0  0  0  0  0  0  0  0  0  0
    1.3076   -0.4860   -0.0669 C   0  0  0  0  0  0  0  0  0  0  0  0
   -0.1331   -0.1965    0.0671 C   0  0  0  0  0  0  0  0  0  0  0  0
   -0.9888   -1.2436    0.4453 C   0  0  0  0  0  0  0  0  0  0  0  0
   -2.3636   -1.0349    0.5898 C   0  0  0  0  0  0  0  0  0  0  0  0
   -2.9049    0.2257    0.3581 C   0  0  0  0  0  0  0  0  0  0  0  0
   -2.0720    1.2759   -0.0176 C   0  0  0  0  0  0  0  0  0  0  0  0
   -0.6963    1.0667   -0.1621 C   0  0  0  0  0  0  0  0  0  0  0  0
    3.8707   -1.0967   -0.2820 H   0  0  0  0  0  0  0  0  0  0  0  0
    2.0761    1.4365   -0.6477 H   0  0  0  0  0  0  0  0  0  0  0  0
    1.5894   -1.5159    0.1455 H   0  0  0  0  0  0  0  0  0  0  0  0
   -0.5964   -2.2407    0.6337 H   0  0  0  0  0  0  0  0  0  0  0  0
   -3.0097   -1.8583    0.8834 H   0  0  0  0  0  0  0  0  0  0  0  0
   -3.9734    0.3902    0.4699 H   0  0  0  0  0  0  0  0  0  0  0  0
   -2.4912    2.2624   -0.1995 H   0  0  0  0  0  0  0  0  0  0  0  0
   -0.0846    1.9144   -0.4567 H   0  0  0  0  0  0  0  0  0  0  0  0
  1  2  2  0
  2  3  1  0
  3  4  2  3
  4  5  1  0
  5  6  2  0
  6  7  1  0
  7  8  2  0
  8  9  1  0
  9 10  2  0
 10  5  1  0
  2 11  1  0
  3 12  1  0
  4 13  1  0
  6 14  1  0
  7 15  1  0
  8 16  1  0
  9 17  1  0
 10 18  1  0
M  END
