
     RDKit          3D

 37 38  0  0  0  0  0  0  0  0999 V2000
   -4.7985    0.7191   -0.0969 O   0  0  0  0  0  0  0  0  0  0  0  0
   -3.5124    0.8362    0.5290 C   0  0  0  0  0  0  0  0  0  0  0  0
   -2.4618    1.3028   -0.4891 C   0  0  0  0  0  0  0  0  0  0  0  0
   -1.7883    0.2001   -1.0995 O   0  0  0  0  0  0  0  0  0  0  0  0
   -1.0279   -0.5991   -0.1882 C   0  0  0  0  0  0  0  0  0  0  0  0
   -1.6294   -0.6610    1.2367 C   0  0  0  0  0  0  0  0  0  0  0  0
   -3.1428   -0.5250    1.1406 C   0  0  0  0  0  0  0  0  0  0  0  0
   -3.7412   -0.6249    2.4417 O   0  0  0  0  0  0  0  0  0  0  0  0
   -1.1454    0.4154    2.0723 O   0  0  0  0  0  0  0  0  0  0  0  0
    0.3198   -0.1139   -0.0800 O   0  0  0  0  0  0  0  0  0  0  0  0
    1.0429   -0.2644   -1.3231 C   0  0  0  0  0  0  0  0  0  0  0  0
    1.7703    1.0562   -1.6009 C   0  0  0  0  0  0  0  0  0  0  0  0
    2.7698    1.3193   -0.6074 O   0  0  0  0  0  0  0  0  0  0  0  0
    3.7945    0.3295   -0.5968 C   0  0  0  0  0  0  0  0  0  0  0  0
    3.2052   -1.0410   -0.2274 C   0  0  0  0  0  0  0  0  0  0  0  0
    2.0711   -1.4028   -1.1933 C   0  0  0  0  0  0  0  0  0  0  0  0
    1.4266   -2.6042   -0.7501 O   0  0  0  0  0  0  0  0  0  0  0  0
    2.6823   -0.9954    1.1208 O   0  0  0  0  0  0  0  0  0  0  0  0
    4.7697    0.7077    0.3617 O   0  0  0  0  0  0  0  0  0  0  0  0
   -5.3949    0.3493    0.5819 H   0  0  0  0  0  0  0  0  0  0  0  0
   -3.6310    1.6078    1.2986 H   0  0  0  0  0  0  0  0  0  0  0  0
   -2.9322    1.8839   -1.2890 H   0  0  0  0  0  0  0  0  0  0  0  0
   -1.7112    1.9449   -0.0138 H   0  0  0  0  0  0  0  0  0  0  0  0
   -1.0220   -1.6151   -0.5999 H   0  0  0  0  0  0  0  0  0  0  0  0
   -1.3274   -1.5835    1.7432 H   0  0  0  0  0  0  0  0  0  0  0  0
   -3.5613   -1.3435    0.5430 H   0  0  0  0  0  0  0  0  0  0  0  0
   -3.1618   -0.1077    3.0380 H   0  0  0  0  0  0  0  0  0  0  0  0
   -0.2380    0.6001    1.7548 H   0  0  0  0  0  0  0  0  0  0  0  0
    0.3535   -0.4816   -2.1478 H   0  0  0  0  0  0  0  0  0  0  0  0
    2.2382    1.0531   -2.5920 H   0  0  0  0  0  0  0  0  0  0  0  0
    1.0602    1.8888   -1.5619 H   0  0  0  0  0  0  0  0  0  0  0  0
    4.2826    0.3000   -1.5775 H   0  0  0  0  0  0  0  0  0  0  0  0
    3.9792   -1.8152   -0.2191 H   0  0  0  0  0  0  0  0  0  0  0  0
    2.4970   -1.6057   -2.1831 H   0  0  0  0  0  0  0  0  0  0  0  0
    1.4924   -2.5956    0.2270 H   0  0  0  0  0  0  0  0  0  0  0  0
    2.0444   -0.2504    1.1285 H   0  0  0  0  0  0  0  0  0  0  0  0
    4.4278    0.3936    1.2190 H   0  0  0  0  0  0  0  0  0  0  0  0
  1  2  1  0
  2  3  1  0
  3  4  1  0
  4  5  1  0
  5  6  1  0
  6  7  1  0
  7  8  1  0
  6  9  1  0
  5 10  1  0
 10 11  1  0
 11 12  1  0
 12 13  1  0
 13 14  1  0
 14 15  1  0
 15 16  1  0
 16 17  1  0
 15 18  1  0
 14 19  1  0
  7  2  1  0
 16 11  1  0
  1 20  1  0
  2 21  1  0
  3 22  1  0
  3 23  1  0
  5 24  1  0
  6 25  1  0
  7 26  1  0
  8 27  1  0
  9 28  1  0
 11 29  1  0
 12 30  1  0
 12 31  1  0
 14 32  1  0
 15 33  1  0
 16 34  1  0
 17 35  1  0
 18 36  1  0
 19 37  1  0
M  END
