
     RDKit          3D

 33 34  0  0  0  0  0  0  0  0999 V2000
    5.7965    0.4759    0.2640 C   0  0  0  0  0  0  0  0  0  0  0  0
    4.8748   -0.4844    0.7670 O   0  0  0  0  0  0  0  0  0  0  0  0
    3.5435   -0.1939    0.6128 C   0  0  0  0  0  0  0  0  0  0  0  0
    3.0119    0.9424    0.0057 C   0  0  0  0  0  0  0  0  0  0  0  0
    1.6231    1.1062   -0.0819 C   0  0  0  0  0  0  0  0  0  0  0  0
    0.7500    0.1402    0.4394 C   0  0  0  0  0  0  0  0  0  0  0  0
    1.2855   -1.0024    1.0435 C   0  0  0  0  0  0  0  0  0  0  0  0
    2.6650   -1.1553    1.1244 C   0  0  0  0  0  0  0  0  0  0  0  0
    3.1548   -2.2850    1.7233 O   0  0  0  0  0  0  0  0  0  0  0  0
   -0.7443    0.3133    0.3237 C   0  0  0  0  0  0  0  0  0  0  0  0
   -1.2901   -0.3312   -0.9534 C   0  0  0  0  0  0  0  0  0  0  0  0
   -2.7834   -0.1513   -1.0720 C   0  0  0  0  0  0  0  0  0  0  0  0
   -3.3151    0.9659   -1.7298 C   0  0  0  0  0  0  0  0  0  0  0  0
   -4.6968    1.1405   -1.8216 C   0  0  0  0  0  0  0  0  0  0  0  0
   -5.5584    0.2037   -1.2538 C   0  0  0  0  0  0  0  0  0  0  0  0
   -5.0394   -0.9079   -0.5927 C   0  0  0  0  0  0  0  0  0  0  0  0
   -3.6581   -1.0845   -0.4998 C   0  0  0  0  0  0  0  0  0  0  0  0
    5.6935    0.5915   -0.8200 H   0  0  0  0  0  0  0  0  0  0  0  0
    5.6858    1.4365    0.7779 H   0  0  0  0  0  0  0  0  0  0  0  0
    6.8066    0.1057    0.4646 H   0  0  0  0  0  0  0  0  0  0  0  0
    3.6432    1.7197   -0.4109 H   0  0  0  0  0  0  0  0  0  0  0  0
    1.2253    1.9982   -0.5621 H   0  0  0  0  0  0  0  0  0  0  0  0
    0.6387   -1.7743    1.4515 H   0  0  0  0  0  0  0  0  0  0  0  0
    4.1259   -2.1907    1.6754 H   0  0  0  0  0  0  0  0  0  0  0  0
   -1.2284   -0.1186    1.2096 H   0  0  0  0  0  0  0  0  0  0  0  0
   -0.9893    1.3834    0.3481 H   0  0  0  0  0  0  0  0  0  0  0  0
   -0.8008    0.0971   -1.8383 H   0  0  0  0  0  0  0  0  0  0  0  0
   -1.0512   -1.4027   -0.9760 H   0  0  0  0  0  0  0  0  0  0  0  0
   -2.6554    1.7068   -2.1755 H   0  0  0  0  0  0  0  0  0  0  0  0
   -5.1012    2.0083   -2.3358 H   0  0  0  0  0  0  0  0  0  0  0  0
   -6.6340    0.3403   -1.3257 H   0  0  0  0  0  0  0  0  0  0  0  0
   -5.7107   -1.6380   -0.1481 H   0  0  0  0  0  0  0  0  0  0  0  0
   -3.2676   -1.9556    0.0218 H   0  0  0  0  0  0  0  0  0  0  0  0
  1  2  1  0
  2  3  1  0
  3  4  2  0
  4  5  1  0
  5  6  2  0
  6  7  1  0
  7  8  2  0
  8  9  1  0
  6 10  1  0
 10 11  1  0
 11 12  1  0
 12 13  2  0
 13 14  1  0
 14 15  2  0
 15 16  1  0
 16 17  2  0
  8  3  1  0
 17 12  1  0
  1 18  1  0
  1 19  1  0
  1 20  1  0
  4 21  1  0
  5 22  1  0
  7 23  1  0
  9 24  1  0
 10 25  1  0
 10 26  1  0
 11 27  1  0
 11 28  1  0
 13 29  1  0
 14 30  1  0
 15 31  1  0
 16 32  1  0
 17 33  1  0
M  END
