
     RDKit          3D

 31 33  0  0  0  0  0  0  0  0999 V2000
    5.4400    0.3984    1.4882 C   0  0  0  0  0  0  0  0  0  0  0  0
    4.8694   -0.2177    0.3393 O   0  0  0  0  0  0  0  0  0  0  0  0
    3.5008   -0.2258    0.2656 C   0  0  0  0  0  0  0  0  0  0  0  0
    2.6207    0.3080    1.2026 C   0  0  0  0  0  0  0  0  0  0  0  0
    1.2366    0.2241    0.9906 C   0  0  0  0  0  0  0  0  0  0  0  0
    0.7073   -0.3970   -0.1536 C   0  0  0  0  0  0  0  0  0  0  0  0
    1.6003   -0.9227   -1.0955 C   0  0  0  0  0  0  0  0  0  0  0  0
    2.9722   -0.8353   -0.8767 C   0  0  0  0  0  0  0  0  0  0  0  0
    3.8096   -1.3657   -1.8219 O   0  0  0  0  0  0  0  0  0  0  0  0
   -0.7527   -0.4609   -0.3508 C   0  0  0  0  0  0  0  0  0  0  0  0
   -1.3769   -1.5069   -0.9138 C   0  0  0  0  0  0  0  0  0  0  0  0
   -2.7410   -1.5819   -1.0925 O   0  0  0  0  0  0  0  0  0  0  0  0
   -3.4552   -0.4947   -0.6491 C   0  0  0  0  0  0  0  0  0  0  0  0
   -2.8240    0.6003   -0.0547 C   0  0  0  0  0  0  0  0  0  0  0  0
   -1.4604    0.6419    0.1152 O   0  0  0  0  0  0  0  0  0  0  0  0
   -3.5729    1.6888    0.3857 C   0  0  0  0  0  0  0  0  0  0  0  0
   -4.9605    1.6779    0.2291 C   0  0  0  0  0  0  0  0  0  0  0  0
   -5.5921    0.5816   -0.3654 C   0  0  0  0  0  0  0  0  0  0  0  0
   -4.8388   -0.5084   -0.8063 C   0  0  0  0  0  0  0  0  0  0  0  0
    5.1809    1.4612    1.5357 H   0  0  0  0  0  0  0  0  0  0  0  0
    5.1436   -0.1235    2.4041 H   0  0  0  0  0  0  0  0  0  0  0  0
    6.5283    0.3247    1.4004 H   0  0  0  0  0  0  0  0  0  0  0  0
    2.9679    0.7956    2.1071 H   0  0  0  0  0  0  0  0  0  0  0  0
    0.5681    0.6465    1.7394 H   0  0  0  0  0  0  0  0  0  0  0  0
    1.2471   -1.3904   -2.0101 H   0  0  0  0  0  0  0  0  0  0  0  0
    4.7103   -1.1959   -1.4832 H   0  0  0  0  0  0  0  0  0  0  0  0
   -0.8971   -2.4039   -1.2786 H   0  0  0  0  0  0  0  0  0  0  0  0
   -3.0803    2.5401    0.8460 H   0  0  0  0  0  0  0  0  0  0  0  0
   -5.5510    2.5249    0.5699 H   0  0  0  0  0  0  0  0  0  0  0  0
   -6.6727    0.5776   -0.4858 H   0  0  0  0  0  0  0  0  0  0  0  0
   -5.3273   -1.3609   -1.2689 H   0  0  0  0  0  0  0  0  0  0  0  0
  1  2  1  0
  2  3  1  0
  3  4  2  0
  4  5  1  0
  5  6  2  0
  6  7  1  0
  7  8  2  0
  8  9  1  0
  6 10  1  0
 10 11  2  0
 11 12  1  0
 12 13  1  0
 13 14  2  0
 14 15  1  0
 14 16  1  0
 16 17  2  0
 17 18  1  0
 18 19  2  0
  8  3  1  0
 15 10  1  0
 19 13  1  0
  1 20  1  0
  1 21  1  0
  1 22  1  0
  4 23  1  0
  5 24  1  0
  7 25  1  0
  9 26  1  0
 11 27  1  0
 16 28  1  0
 17 29  1  0
 18 30  1  0
 19 31  1  0
M  END
