
     RDKit          3D

 35 37  0  0  0  0  0  0  0  0999 V2000
    5.9485    0.4126    0.1426 C   0  0  0  0  0  0  0  0  0  0  0  0
    4.9833   -0.2279   -0.6839 O   0  0  0  0  0  0  0  0  0  0  0  0
    3.6770   -0.1439   -0.2771 C   0  0  0  0  0  0  0  0  0  0  0  0
    3.2065    0.5109    0.8583 C   0  0  0  0  0  0  0  0  0  0  0  0
    1.8353    0.5137    1.1497 C   0  0  0  0  0  0  0  0  0  0  0  0
    0.9126   -0.1381    0.3147 C   0  0  0  0  0  0  0  0  0  0  0  0
    1.3925   -0.7920   -0.8274 C   0  0  0  0  0  0  0  0  0  0  0  0
    2.7552   -0.7884   -1.1076 C   0  0  0  0  0  0  0  0  0  0  0  0
    3.1819   -1.4399   -2.2338 O   0  0  0  0  0  0  0  0  0  0  0  0
   -0.5639   -0.1125    0.6589 C   0  0  0  0  0  0  0  0  0  0  0  0
   -1.1847   -1.5084    0.7667 C   0  0  0  0  0  0  0  0  0  0  0  0
   -2.5211   -1.4585    1.2826 O   0  0  0  0  0  0  0  0  0  0  0  0
   -3.3310   -0.5359    0.6747 C   0  0  0  0  0  0  0  0  0  0  0  0
   -2.8531    0.5208   -0.1091 C   0  0  0  0  0  0  0  0  0  0  0  0
   -1.3800    0.6965   -0.3555 C   0  0  0  0  0  0  0  0  0  0  0  0
   -3.7694    1.4090   -0.6896 C   0  0  0  0  0  0  0  0  0  0  0  0
   -5.1387    1.2574   -0.4661 C   0  0  0  0  0  0  0  0  0  0  0  0
   -5.6035    0.2171    0.3361 C   0  0  0  0  0  0  0  0  0  0  0  0
   -4.6990   -0.6772    0.9078 C   0  0  0  0  0  0  0  0  0  0  0  0
    5.9669   -0.0303    1.1439 H   0  0  0  0  0  0  0  0  0  0  0  0
    5.7732    1.4924    0.1896 H   0  0  0  0  0  0  0  0  0  0  0  0
    6.9324    0.2545   -0.3094 H   0  0  0  0  0  0  0  0  0  0  0  0
    3.8722    1.0296    1.5397 H   0  0  0  0  0  0  0  0  0  0  0  0
    1.4930    1.0337    2.0432 H   0  0  0  0  0  0  0  0  0  0  0  0
    0.7206   -1.3049   -1.5103 H   0  0  0  0  0  0  0  0  0  0  0  0
    4.1513   -1.3176   -2.2410 H   0  0  0  0  0  0  0  0  0  0  0  0
   -0.6888    0.3703    1.6397 H   0  0  0  0  0  0  0  0  0  0  0  0
   -1.2003   -2.0368   -0.1954 H   0  0  0  0  0  0  0  0  0  0  0  0
   -0.6017   -2.1275    1.4586 H   0  0  0  0  0  0  0  0  0  0  0  0
   -1.1084    1.7570   -0.2804 H   0  0  0  0  0  0  0  0  0  0  0  0
   -1.1682    0.3750   -1.3831 H   0  0  0  0  0  0  0  0  0  0  0  0
   -3.4193    2.2270   -1.3152 H   0  0  0  0  0  0  0  0  0  0  0  0
   -5.8428    1.9527   -0.9159 H   0  0  0  0  0  0  0  0  0  0  0  0
   -6.6688    0.1000    0.5150 H   0  0  0  0  0  0  0  0  0  0  0  0
   -5.0598   -1.4906    1.5314 H   0  0  0  0  0  0  0  0  0  0  0  0
  1  2  1  0
  2  3  1  0
  3  4  2  0
  4  5  1  0
  5  6  2  0
  6  7  1  0
  7  8  2  0
  8  9  1  0
  6 10  1  0
 10 11  1  0
 11 12  1  0
 12 13  1  0
 13 14  2  0
 14 15  1  0
 14 16  1  0
 16 17  2  0
 17 18  1  0
 18 19  2  0
  8  3  1  0
 15 10  1  0
 19 13  1  0
  1 20  1  0
  1 21  1  0
  1 22  1  0
  4 23  1  0
  5 24  1  0
  7 25  1  0
  9 26  1  0
 10 27  1  0
 11 28  1  0
 11 29  1  0
 15 30  1  0
 15 31  1  0
 16 32  1  0
 17 33  1  0
 18 34  1  0
 19 35  1  0
M  END
