
     RDKit          3D

 36 38  0  0  0  0  0  0  0  0999 V2000
    5.9029    0.0296   -1.4672 C   0  0  0  0  0  0  0  0  0  0  0  0
    5.1106    0.7399   -0.5224 O   0  0  0  0  0  0  0  0  0  0  0  0
    3.7893    0.3815   -0.4420 C   0  0  0  0  0  0  0  0  0  0  0  0
    3.1545   -0.6030   -1.1957 C   0  0  0  0  0  0  0  0  0  0  0  0
    1.7908   -0.8599   -1.0031 C   0  0  0  0  0  0  0  0  0  0  0  0
    1.0411   -0.1436   -0.0527 C   0  0  0  0  0  0  0  0  0  0  0  0
    1.6841    0.8508    0.6961 C   0  0  0  0  0  0  0  0  0  0  0  0
    3.0380    1.0977    0.4968 C   0  0  0  0  0  0  0  0  0  0  0  0
    3.6315    2.0751    1.2505 O   0  0  0  0  0  0  0  0  0  0  0  0
   -0.4408   -0.4132    0.1380 C   0  0  0  0  0  0  0  0  0  0  0  0
   -0.6046   -1.8252    0.2948 O   0  0  0  0  0  0  0  0  0  0  0  0
   -1.8799   -2.1699    0.8270 C   0  0  0  0  0  0  0  0  0  0  0  0
   -3.0090   -1.9305   -0.1719 C   0  0  0  0  0  0  0  0  0  0  0  0
   -3.3504   -0.4697   -0.3264 C   0  0  0  0  0  0  0  0  0  0  0  0
   -2.3928    0.4577   -0.7540 C   0  0  0  0  0  0  0  0  0  0  0  0
   -1.1021    0.0963   -1.0252 O   0  0  0  0  0  0  0  0  0  0  0  0
   -2.7353    1.7902   -0.9841 C   0  0  0  0  0  0  0  0  0  0  0  0
   -4.0377    2.2234   -0.7461 C   0  0  0  0  0  0  0  0  0  0  0  0
   -4.9982    1.3187   -0.2979 C   0  0  0  0  0  0  0  0  0  0  0  0
   -4.6596   -0.0217   -0.0968 C   0  0  0  0  0  0  0  0  0  0  0  0
    5.9456   -1.0372   -1.2241 H   0  0  0  0  0  0  0  0  0  0  0  0
    5.5390    0.1901   -2.4874 H   0  0  0  0  0  0  0  0  0  0  0  0
    6.9220    0.4244   -1.4116 H   0  0  0  0  0  0  0  0  0  0  0  0
    3.6812   -1.1889   -1.9407 H   0  0  0  0  0  0  0  0  0  0  0  0
    1.3019   -1.6287   -1.6000 H   0  0  0  0  0  0  0  0  0  0  0  0
    1.1417    1.4375    1.4323 H   0  0  0  0  0  0  0  0  0  0  0  0
    4.5630    2.0835    0.9556 H   0  0  0  0  0  0  0  0  0  0  0  0
   -0.7676    0.1049    1.0527 H   0  0  0  0  0  0  0  0  0  0  0  0
   -2.0490   -1.6507    1.7783 H   0  0  0  0  0  0  0  0  0  0  0  0
   -1.8363   -3.2414    1.0505 H   0  0  0  0  0  0  0  0  0  0  0  0
   -2.7400   -2.3286   -1.1580 H   0  0  0  0  0  0  0  0  0  0  0  0
   -3.8950   -2.4795    0.1687 H   0  0  0  0  0  0  0  0  0  0  0  0
   -1.9855    2.4894   -1.3446 H   0  0  0  0  0  0  0  0  0  0  0  0
   -4.3046    3.2628   -0.9173 H   0  0  0  0  0  0  0  0  0  0  0  0
   -6.0169    1.6538   -0.1190 H   0  0  0  0  0  0  0  0  0  0  0  0
   -5.4318   -0.7154    0.2287 H   0  0  0  0  0  0  0  0  0  0  0  0
  1  2  1  0
  2  3  1  0
  3  4  2  0
  4  5  1  0
  5  6  2  0
  6  7  1  0
  7  8  2  0
  8  9  1  0
  6 10  1  0
 10 11  1  0
 11 12  1  0
 12 13  1  0
 13 14  1  0
 14 15  2  0
 15 16  1  0
 15 17  1  0
 17 18  2  0
 18 19  1  0
 19 20  2  0
  8  3  1  0
 16 10  1  0
 20 14  1  0
  1 21  1  0
  1 22  1  0
  1 23  1  0
  4 24  1  0
  5 25  1  0
  7 26  1  0
  9 27  1  0
 10 28  1  0
 12 29  1  0
 12 30  1  0
 13 31  1  0
 13 32  1  0
 17 33  1  0
 18 34  1  0
 19 35  1  0
 20 36  1  0
M  END
