
     RDKit          3D

 36 38  0  0  0  0  0  0  0  0999 V2000
    5.6780    1.5902    0.3464 C   0  0  0  0  0  0  0  0  0  0  0  0
    5.1447    0.4572   -0.3295 O   0  0  0  0  0  0  0  0  0  0  0  0
    3.8380    0.1426   -0.0584 C   0  0  0  0  0  0  0  0  0  0  0  0
    2.9900    0.8213    0.8136 C   0  0  0  0  0  0  0  0  0  0  0  0
    1.6701    0.3833    0.9930 C   0  0  0  0  0  0  0  0  0  0  0  0
    1.1733   -0.7356    0.3026 C   0  0  0  0  0  0  0  0  0  0  0  0
    2.0365   -1.4156   -0.5700 C   0  0  0  0  0  0  0  0  0  0  0  0
    3.3438   -0.9737   -0.7405 C   0  0  0  0  0  0  0  0  0  0  0  0
    4.1510   -1.6653   -1.6034 O   0  0  0  0  0  0  0  0  0  0  0  0
   -0.2512   -1.2389    0.4900 C   0  0  0  0  0  0  0  0  0  0  0  0
   -0.8881   -1.4219   -0.7721 O   0  0  0  0  0  0  0  0  0  0  0  0
   -1.3936   -0.2064   -1.3140 C   0  0  0  0  0  0  0  0  0  0  0  0
   -2.8111    0.0575   -0.8549 C   0  0  0  0  0  0  0  0  0  0  0  0
   -3.2411   -0.2074    0.4628 C   0  0  0  0  0  0  0  0  0  0  0  0
   -2.3411   -0.8422    1.4996 C   0  0  0  0  0  0  0  0  0  0  0  0
   -0.9939   -0.4021    1.3721 O   0  0  0  0  0  0  0  0  0  0  0  0
   -4.5735    0.0742    0.8168 C   0  0  0  0  0  0  0  0  0  0  0  0
   -5.4571    0.6394   -0.1020 C   0  0  0  0  0  0  0  0  0  0  0  0
   -5.0253    0.9266   -1.3915 C   0  0  0  0  0  0  0  0  0  0  0  0
   -3.7123    0.6409   -1.7642 C   0  0  0  0  0  0  0  0  0  0  0  0
    6.7175    1.7106    0.0266 H   0  0  0  0  0  0  0  0  0  0  0  0
    5.1379    2.5029    0.0737 H   0  0  0  0  0  0  0  0  0  0  0  0
    5.6788    1.4385    1.4309 H   0  0  0  0  0  0  0  0  0  0  0  0
    3.3157    1.6925    1.3717 H   0  0  0  0  0  0  0  0  0  0  0  0
    1.0267    0.9301    1.6807 H   0  0  0  0  0  0  0  0  0  0  0  0
    1.6908   -2.2864   -1.1221 H   0  0  0  0  0  0  0  0  0  0  0  0
    5.0069   -1.1952   -1.5752 H   0  0  0  0  0  0  0  0  0  0  0  0
   -0.1677   -2.2278    0.9594 H   0  0  0  0  0  0  0  0  0  0  0  0
   -0.7520    0.6545   -1.0918 H   0  0  0  0  0  0  0  0  0  0  0  0
   -1.3885   -0.3402   -2.4017 H   0  0  0  0  0  0  0  0  0  0  0  0
   -2.4214   -1.9357    1.4640 H   0  0  0  0  0  0  0  0  0  0  0  0
   -2.6665   -0.5239    2.4965 H   0  0  0  0  0  0  0  0  0  0  0  0
   -4.9312   -0.1434    1.8213 H   0  0  0  0  0  0  0  0  0  0  0  0
   -6.4812    0.8560    0.1901 H   0  0  0  0  0  0  0  0  0  0  0  0
   -5.7098    1.3711   -2.1091 H   0  0  0  0  0  0  0  0  0  0  0  0
   -3.3933    0.8727   -2.7787 H   0  0  0  0  0  0  0  0  0  0  0  0
  1  2  1  0
  2  3  1  0
  3  4  2  0
  4  5  1  0
  5  6  2  0
  6  7  1  0
  7  8  2  0
  8  9  1  0
  6 10  1  0
 10 11  1  0
 11 12  1  0
 12 13  1  0
 13 14  2  0
 14 15  1  0
 15 16  1  0
 14 17  1  0
 17 18  2  0
 18 19  1  0
 19 20  2  0
  8  3  1  0
 16 10  1  0
 20 13  1  0
  1 21  1  0
  1 22  1  0
  1 23  1  0
  4 24  1  0
  5 25  1  0
  7 26  1  0
  9 27  1  0
 10 28  1  0
 12 29  1  0
 12 30  1  0
 15 31  1  0
 15 32  1  0
 17 33  1  0
 18 34  1  0
 19 35  1  0
 20 36  1  0
M  END
