
     RDKit          3D

 30 32  0  0  0  0  0  0  0  0999 V2000
   -4.8890    0.7910    1.1833 C   0  0  0  0  0  0  0  0  0  0  0  0
   -4.4887   -0.0141    0.0803 O   0  0  0  0  0  0  0  0  0  0  0  0
   -3.1394   -0.1295   -0.1342 C   0  0  0  0  0  0  0  0  0  0  0  0
   -2.1302    0.4634    0.6210 C   0  0  0  0  0  0  0  0  0  0  0  0
   -0.7870    0.2548    0.2811 C   0  0  0  0  0  0  0  0  0  0  0  0
   -0.4308   -0.5482   -0.8170 C   0  0  0  0  0  0  0  0  0  0  0  0
   -1.4501   -1.1416   -1.5725 C   0  0  0  0  0  0  0  0  0  0  0  0
   -2.7799   -0.9276   -1.2259 C   0  0  0  0  0  0  0  0  0  0  0  0
   -3.7471   -1.5250   -1.9890 O   0  0  0  0  0  0  0  0  0  0  0  0
    1.0235   -0.7713   -1.1814 C   0  0  0  0  0  0  0  0  0  0  0  0
    1.6405    0.4908   -1.5341 O   0  0  0  0  0  0  0  0  0  0  0  0
    2.7532    0.4610   -0.7510 C   0  0  0  0  0  0  0  0  0  0  0  0
    2.7890   -0.6438    0.0686 C   0  0  0  0  0  0  0  0  0  0  0  0
    1.7034   -1.4479   -0.0960 O   0  0  0  0  0  0  0  0  0  0  0  0
    3.8227   -0.8576    0.9547 C   0  0  0  0  0  0  0  0  0  0  0  0
    4.8491    0.0902    0.9940 C   0  0  0  0  0  0  0  0  0  0  0  0
    4.8125    1.2198    0.1561 C   0  0  0  0  0  0  0  0  0  0  0  0
    3.7490    1.4135   -0.7299 C   0  0  0  0  0  0  0  0  0  0  0  0
   -4.5671    1.8293    1.0515 H   0  0  0  0  0  0  0  0  0  0  0  0
   -5.9826    0.7841    1.2218 H   0  0  0  0  0  0  0  0  0  0  0  0
   -4.5200    0.3780    2.1279 H   0  0  0  0  0  0  0  0  0  0  0  0
   -2.3460    1.0921    1.4781 H   0  0  0  0  0  0  0  0  0  0  0  0
   -0.0096    0.7253    0.8815 H   0  0  0  0  0  0  0  0  0  0  0  0
   -1.2220   -1.7698   -2.4294 H   0  0  0  0  0  0  0  0  0  0  0  0
   -4.5914   -1.2499   -1.5812 H   0  0  0  0  0  0  0  0  0  0  0  0
    1.0941   -1.4230   -2.0630 H   0  0  0  0  0  0  0  0  0  0  0  0
    3.8363   -1.7300    1.5980 H   0  0  0  0  0  0  0  0  0  0  0  0
    5.6829   -0.0447    1.6794 H   0  0  0  0  0  0  0  0  0  0  0  0
    5.6182    1.9492    0.2003 H   0  0  0  0  0  0  0  0  0  0  0  0
    3.7063    2.2816   -1.3778 H   0  0  0  0  0  0  0  0  0  0  0  0
  1  2  1  0
  2  3  1  0
  3  4  2  0
  4  5  1  0
  5  6  2  0
  6  7  1  0
  7  8  2  0
  8  9  1  0
  6 10  1  0
 10 11  1  0
 11 12  1  0
 12 13  2  0
 13 14  1  0
 13 15  1  0
 15 16  2  0
 16 17  1  0
 17 18  2  0
  8  3  1  0
 14 10  1  0
 18 12  1  0
  1 19  1  0
  1 20  1  0
  1 21  1  0
  4 22  1  0
  5 23  1  0
  7 24  1  0
  9 25  1  0
 10 26  1  0
 15 27  1  0
 16 28  1  0
 17 29  1  0
 18 30  1  0
M  END
