
     RDKit          3D

 47 47  0  0  0  0  0  0  0  0999 V2000
    0.3651    2.2133   -3.6939 O   0  0  0  0  0  0  0  0  0  0  0  0
    0.6567    1.9828   -2.3127 C   0  0  0  0  0  0  0  0  0  0  0  0
    1.0392    0.5123   -2.1111 C   0  0  0  0  0  0  0  0  0  0  0  0
    1.2987    0.1220   -0.6366 C   0  0  0  0  0  0  0  0  0  0  0  0
    2.4593    0.9155    0.0055 C   0  0  0  0  0  0  0  0  0  0  0  0
    2.7683    0.4277    1.4315 C   0  0  0  0  0  0  0  0  0  0  0  0
    3.8447    1.2751    2.1170 C   0  0  0  0  0  0  0  0  0  0  0  0
    4.0735    0.7372    3.4248 O   0  0  0  0  0  0  0  0  0  0  0  0
    3.2519   -0.9273    1.3556 O   0  0  0  0  0  0  0  0  0  0  0  0
    3.6360    0.7762   -0.7982 O   0  0  0  0  0  0  0  0  0  0  0  0
    0.0943    0.3624    0.1129 O   0  0  0  0  0  0  0  0  0  0  0  0
   -0.4767   -0.8315    0.6681 C   0  0  0  0  0  0  0  0  0  0  0  0
   -1.0622   -1.5673   -0.4155 O   0  0  0  0  0  0  0  0  0  0  0  0
   -2.4967   -1.7066   -0.3469 C   0  0  0  0  0  0  0  0  0  0  0  0
   -2.9625   -2.3686   -1.6491 C   0  0  0  0  0  0  0  0  0  0  0  0
   -2.4426   -3.6977   -1.7159 O   0  0  0  0  0  0  0  0  0  0  0  0
   -3.1928   -0.3555   -0.1059 C   0  0  0  0  0  0  0  0  0  0  0  0
   -2.6081    0.3863    1.1097 C   0  0  0  0  0  0  0  0  0  0  0  0
   -1.4808   -0.4187    1.7629 C   0  0  0  0  0  0  0  0  0  0  0  0
   -0.8635    0.3586    2.7998 O   0  0  0  0  0  0  0  0  0  0  0  0
   -3.6203    0.6199    2.1033 O   0  0  0  0  0  0  0  0  0  0  0  0
   -3.0860    0.4899   -1.2578 O   0  0  0  0  0  0  0  0  0  0  0  0
   -0.0514   -0.2705   -2.6576 O   0  0  0  0  0  0  0  0  0  0  0  0
   -0.0754    1.3951   -4.0027 H   0  0  0  0  0  0  0  0  0  0  0  0
   -0.2476    2.2426   -1.7514 H   0  0  0  0  0  0  0  0  0  0  0  0
    1.4634    2.6612   -2.0221 H   0  0  0  0  0  0  0  0  0  0  0  0
    1.9102    0.2747   -2.7304 H   0  0  0  0  0  0  0  0  0  0  0  0
    1.5495   -0.9470   -0.6375 H   0  0  0  0  0  0  0  0  0  0  0  0
    2.1998    1.9788    0.0546 H   0  0  0  0  0  0  0  0  0  0  0  0
    1.8706    0.4118    2.0561 H   0  0  0  0  0  0  0  0  0  0  0  0
    3.5474    2.3246    2.2068 H   0  0  0  0  0  0  0  0  0  0  0  0
    4.7966    1.2198    1.5813 H   0  0  0  0  0  0  0  0  0  0  0  0
    3.4432    1.1774    4.0257 H   0  0  0  0  0  0  0  0  0  0  0  0
    3.6810   -1.0903    2.2227 H   0  0  0  0  0  0  0  0  0  0  0  0
    4.0085   -0.1018   -0.5730 H   0  0  0  0  0  0  0  0  0  0  0  0
    0.3165   -1.4350    1.1227 H   0  0  0  0  0  0  0  0  0  0  0  0
   -2.7152   -2.3969    0.4777 H   0  0  0  0  0  0  0  0  0  0  0  0
   -2.5919   -1.8370   -2.5284 H   0  0  0  0  0  0  0  0  0  0  0  0
   -4.0516   -2.4307   -1.6994 H   0  0  0  0  0  0  0  0  0  0  0  0
   -1.4756   -3.6195   -1.6425 H   0  0  0  0  0  0  0  0  0  0  0  0
   -4.2653   -0.5292    0.0379 H   0  0  0  0  0  0  0  0  0  0  0  0
   -2.2411    1.3825    0.8251 H   0  0  0  0  0  0  0  0  0  0  0  0
   -1.8928   -1.3076    2.2541 H   0  0  0  0  0  0  0  0  0  0  0  0
   -1.6093    0.7210    3.3190 H   0  0  0  0  0  0  0  0  0  0  0  0
   -4.2860    1.2010    1.6889 H   0  0  0  0  0  0  0  0  0  0  0  0
   -2.1442    0.5652   -1.5150 H   0  0  0  0  0  0  0  0  0  0  0  0
   -0.3348   -0.8964   -1.9600 H   0  0  0  0  0  0  0  0  0  0  0  0
  1  2  1  0
  2  3  1  0
  3  4  1  0
  4  5  1  0
  5  6  1  0
  6  7  1  0
  7  8  1  0
  6  9  1  0
  5 10  1  0
  4 11  1  0
 11 12  1  0
 12 13  1  0
 13 14  1  0
 14 15  1  0
 15 16  1  0
 14 17  1  0
 17 18  1  0
 18 19  1  0
 19 20  1  0
 18 21  1  0
 17 22  1  0
  3 23  1  0
 19 12  1  0
  1 24  1  0
  2 25  1  0
  2 26  1  0
  3 27  1  0
  4 28  1  0
  5 29  1  0
  6 30  1  0
  7 31  1  0
  7 32  1  0
  8 33  1  0
  9 34  1  0
 10 35  1  0
 12 36  1  0
 14 37  1  0
 15 38  1  0
 15 39  1  0
 16 40  1  0
 17 41  1  0
 18 42  1  0
 19 43  1  0
 20 44  1  0
 21 45  1  0
 22 46  1  0
 23 47  1  0
M  END
