
     RDKit          3D

 33 35  0  0  0  0  0  0  0  0999 V2000
    6.0434   -0.1217   -0.0318 C   0  0  0  0  0  0  0  0  0  0  0  0
    5.0924    0.4888   -0.8971 O   0  0  0  0  0  0  0  0  0  0  0  0
    3.7735    0.3498   -0.5519 C   0  0  0  0  0  0  0  0  0  0  0  0
    3.2771   -0.3369    0.5523 C   0  0  0  0  0  0  0  0  0  0  0  0
    1.8937   -0.3944    0.7779 C   0  0  0  0  0  0  0  0  0  0  0  0
    0.9829    0.2254   -0.0948 C   0  0  0  0  0  0  0  0  0  0  0  0
    1.4921    0.9232   -1.1969 C   0  0  0  0  0  0  0  0  0  0  0  0
    2.8663    0.9738   -1.4136 C   0  0  0  0  0  0  0  0  0  0  0  0
    3.3196    1.6633   -2.5066 O   0  0  0  0  0  0  0  0  0  0  0  0
   -0.4662    0.1550    0.1771 C   0  0  0  0  0  0  0  0  0  0  0  0
   -1.3941    0.0651   -0.7850 C   0  0  0  0  0  0  0  0  0  0  0  0
   -2.7977   -0.0053   -0.4050 C   0  0  0  0  0  0  0  0  0  0  0  0
   -3.7971   -0.0892   -1.3831 C   0  0  0  0  0  0  0  0  0  0  0  0
   -5.1417   -0.1566   -1.0117 C   0  0  0  0  0  0  0  0  0  0  0  0
   -5.4953   -0.1411    0.3365 C   0  0  0  0  0  0  0  0  0  0  0  0
   -4.5054   -0.0583    1.3126 C   0  0  0  0  0  0  0  0  0  0  0  0
   -3.1537    0.0103    0.9469 C   0  0  0  0  0  0  0  0  0  0  0  0
   -2.0968    0.0960    1.9769 C   0  0  0  0  0  0  0  0  0  0  0  0
   -2.3960    0.0997    3.1684 O   0  0  0  0  0  0  0  0  0  0  0  0
   -0.8041    0.1644    1.5498 O   0  0  0  0  0  0  0  0  0  0  0  0
   -4.9388   -0.0501    2.6118 O   0  0  0  0  0  0  0  0  0  0  0  0
    5.9098   -1.2081   -0.0029 H   0  0  0  0  0  0  0  0  0  0  0  0
    7.0400    0.0806   -0.4357 H   0  0  0  0  0  0  0  0  0  0  0  0
    5.9971    0.3106    0.9732 H   0  0  0  0  0  0  0  0  0  0  0  0
    3.9288   -0.8380    1.2600 H   0  0  0  0  0  0  0  0  0  0  0  0
    1.5321   -0.9385    1.6495 H   0  0  0  0  0  0  0  0  0  0  0  0
    0.8378    1.4452   -1.8890 H   0  0  0  0  0  0  0  0  0  0  0  0
    4.2929    1.5840   -2.4678 H   0  0  0  0  0  0  0  0  0  0  0  0
   -1.1387    0.0319   -1.8388 H   0  0  0  0  0  0  0  0  0  0  0  0
   -3.5411   -0.1025   -2.4407 H   0  0  0  0  0  0  0  0  0  0  0  0
   -5.9152   -0.2212   -1.7735 H   0  0  0  0  0  0  0  0  0  0  0  0
   -6.5413   -0.1935    0.6286 H   0  0  0  0  0  0  0  0  0  0  0  0
   -4.1563    0.0100    3.2045 H   0  0  0  0  0  0  0  0  0  0  0  0
  1  2  1  0
  2  3  1  0
  3  4  2  0
  4  5  1  0
  5  6  2  0
  6  7  1  0
  7  8  2  0
  8  9  1  0
  6 10  1  0
 10 11  2  0
 11 12  1  0
 12 13  2  0
 13 14  1  0
 14 15  2  0
 15 16  1  0
 16 17  2  0
 17 18  1  0
 18 19  2  0
 18 20  1  0
 16 21  1  0
  8  3  1  0
 20 10  1  0
 17 12  1  0
  1 22  1  0
  1 23  1  0
  1 24  1  0
  4 25  1  0
  5 26  1  0
  7 27  1  0
  9 28  1  0
 11 29  1  0
 13 30  1  0
 14 31  1  0
 15 32  1  0
 21 33  1  0
M  END
