
     RDKit          3D

 33 35  0  0  0  0  0  0  0  0999 V2000
    5.7617    1.3480   -0.1632 C   0  0  0  0  0  0  0  0  0  0  0  0
    4.8311    1.2436   -1.2349 O   0  0  0  0  0  0  0  0  0  0  0  0
    3.5586    0.8559   -0.9058 C   0  0  0  0  0  0  0  0  0  0  0  0
    3.0902    0.5598    0.3714 C   0  0  0  0  0  0  0  0  0  0  0  0
    1.7543    0.1740    0.5557 C   0  0  0  0  0  0  0  0  0  0  0  0
    0.8676    0.0716   -0.5297 C   0  0  0  0  0  0  0  0  0  0  0  0
    1.3434    0.3805   -1.8097 C   0  0  0  0  0  0  0  0  0  0  0  0
    2.6706    0.7624   -1.9822 C   0  0  0  0  0  0  0  0  0  0  0  0
    3.0958    1.0525   -3.2511 O   0  0  0  0  0  0  0  0  0  0  0  0
   -0.5350   -0.3279   -0.3017 C   0  0  0  0  0  0  0  0  0  0  0  0
   -1.1645   -1.1867   -1.1174 C   0  0  0  0  0  0  0  0  0  0  0  0
   -2.5582   -1.5533   -0.8285 C   0  0  0  0  0  0  0  0  0  0  0  0
   -3.1794   -2.3342   -1.5412 O   0  0  0  0  0  0  0  0  0  0  0  0
   -3.1784   -0.9441    0.3532 C   0  0  0  0  0  0  0  0  0  0  0  0
   -2.4133   -0.0713    1.1231 C   0  0  0  0  0  0  0  0  0  0  0  0
   -1.1099    0.2396    0.8257 O   0  0  0  0  0  0  0  0  0  0  0  0
   -2.9663    0.5293    2.2552 C   0  0  0  0  0  0  0  0  0  0  0  0
   -4.2875    0.2532    2.6146 C   0  0  0  0  0  0  0  0  0  0  0  0
   -5.0545   -0.6226    1.8434 C   0  0  0  0  0  0  0  0  0  0  0  0
   -4.5002   -1.2203    0.7143 C   0  0  0  0  0  0  0  0  0  0  0  0
   -5.3064   -2.0681    0.0045 O   0  0  0  0  0  0  0  0  0  0  0  0
    6.7217    1.6618   -0.5844 H   0  0  0  0  0  0  0  0  0  0  0  0
    5.4490    2.1104    0.5578 H   0  0  0  0  0  0  0  0  0  0  0  0
    5.9124    0.3791    0.3242 H   0  0  0  0  0  0  0  0  0  0  0  0
    3.7290    0.6171    1.2462 H   0  0  0  0  0  0  0  0  0  0  0  0
    1.4120   -0.0544    1.5639 H   0  0  0  0  0  0  0  0  0  0  0  0
    0.6943    0.3419   -2.6802 H   0  0  0  0  0  0  0  0  0  0  0  0
    4.0370    1.2966   -3.1529 H   0  0  0  0  0  0  0  0  0  0  0  0
   -0.7086   -1.6464   -1.9848 H   0  0  0  0  0  0  0  0  0  0  0  0
   -2.3719    1.2124    2.8567 H   0  0  0  0  0  0  0  0  0  0  0  0
   -4.7216    0.7203    3.4954 H   0  0  0  0  0  0  0  0  0  0  0  0
   -6.0831   -0.8393    2.1208 H   0  0  0  0  0  0  0  0  0  0  0  0
   -4.7898   -2.4137   -0.7584 H   0  0  0  0  0  0  0  0  0  0  0  0
  1  2  1  0
  2  3  1  0
  3  4  2  0
  4  5  1  0
  5  6  2  0
  6  7  1  0
  7  8  2  0
  8  9  1  0
  6 10  1  0
 10 11  2  0
 11 12  1  0
 12 13  2  0
 12 14  1  0
 14 15  2  0
 15 16  1  0
 15 17  1  0
 17 18  2  0
 18 19  1  0
 19 20  2  0
 20 21  1  0
  8  3  1  0
 16 10  1  0
 20 14  1  0
  1 22  1  0
  1 23  1  0
  1 24  1  0
  4 25  1  0
  5 26  1  0
  7 27  1  0
  9 28  1  0
 11 29  1  0
 17 30  1  0
 18 31  1  0
 19 32  1  0
 21 33  1  0
M  END
