
     RDKit          3D

 31 33  0  0  0  0  0  0  0  0999 V2000
    5.0049    0.0913   -0.6418 C   0  0  0  0  0  0  0  0  0  0  0  0
    4.2050   -0.4945    0.3793 O   0  0  0  0  0  0  0  0  0  0  0  0
    2.8643   -0.6064    0.1166 C   0  0  0  0  0  0  0  0  0  0  0  0
    2.2109   -0.1817   -1.0377 C   0  0  0  0  0  0  0  0  0  0  0  0
    0.8265   -0.3608   -1.1676 C   0  0  0  0  0  0  0  0  0  0  0  0
    0.0733   -0.9728   -0.1503 C   0  0  0  0  0  0  0  0  0  0  0  0
    0.7379   -1.3932    1.0103 C   0  0  0  0  0  0  0  0  0  0  0  0
    2.1108   -1.2076    1.1296 C   0  0  0  0  0  0  0  0  0  0  0  0
    2.7183   -1.6316    2.2808 O   0  0  0  0  0  0  0  0  0  0  0  0
   -1.4249   -1.1508   -0.2575 C   0  0  0  0  0  0  0  0  0  0  0  0
   -1.8203   -1.3911   -1.6311 O   0  0  0  0  0  0  0  0  0  0  0  0
   -2.7551   -0.4933   -2.0607 C   0  0  0  0  0  0  0  0  0  0  0  0
   -3.2701   -0.4540   -3.1598 O   0  0  0  0  0  0  0  0  0  0  0  0
   -3.0076    0.4161   -0.9527 C   0  0  0  0  0  0  0  0  0  0  0  0
   -2.2184    0.0469    0.1172 C   0  0  0  0  0  0  0  0  0  0  0  0
   -2.2747    0.7598    1.3047 C   0  0  0  0  0  0  0  0  0  0  0  0
   -3.1402    1.8567    1.3803 C   0  0  0  0  0  0  0  0  0  0  0  0
   -3.9353    2.2229    0.2809 C   0  0  0  0  0  0  0  0  0  0  0  0
   -3.8733    1.4953   -0.9078 C   0  0  0  0  0  0  0  0  0  0  0  0
    4.9695   -0.5028   -1.5609 H   0  0  0  0  0  0  0  0  0  0  0  0
    4.7085    1.1288   -0.8281 H   0  0  0  0  0  0  0  0  0  0  0  0
    6.0411    0.0993   -0.2902 H   0  0  0  0  0  0  0  0  0  0  0  0
    2.7406    0.2925   -1.8571 H   0  0  0  0  0  0  0  0  0  0  0  0
    0.3404   -0.0188   -2.0804 H   0  0  0  0  0  0  0  0  0  0  0  0
    0.1974   -1.8658    1.8264 H   0  0  0  0  0  0  0  0  0  0  0  0
    3.6643   -1.4196    2.1565 H   0  0  0  0  0  0  0  0  0  0  0  0
   -1.7521   -2.0253    0.3175 H   0  0  0  0  0  0  0  0  0  0  0  0
   -1.6621    0.4846    2.1586 H   0  0  0  0  0  0  0  0  0  0  0  0
   -3.1988    2.4347    2.3007 H   0  0  0  0  0  0  0  0  0  0  0  0
   -4.6020    3.0791    0.3586 H   0  0  0  0  0  0  0  0  0  0  0  0
   -4.4791    1.7622   -1.7680 H   0  0  0  0  0  0  0  0  0  0  0  0
  1  2  1  0
  2  3  1  0
  3  4  2  0
  4  5  1  0
  5  6  2  0
  6  7  1  0
  7  8  2  0
  8  9  1  0
  6 10  1  0
 10 11  1  0
 11 12  1  0
 12 13  2  0
 12 14  1  0
 14 15  2  0
 15 16  1  0
 16 17  2  0
 17 18  1  0
 18 19  2  0
  8  3  1  0
 15 10  1  0
 19 14  1  0
  1 20  1  0
  1 21  1  0
  1 22  1  0
  4 23  1  0
  5 24  1  0
  7 25  1  0
  9 26  1  0
 10 27  1  0
 16 28  1  0
 17 29  1  0
 18 30  1  0
 19 31  1  0
M  END
