
     RDKit          3D

 33 35  0  0  0  0  0  0  0  0999 V2000
   -5.9319    0.0580   -0.9955 C   0  0  0  0  0  0  0  0  0  0  0  0
   -5.1885   -0.2192    0.1858 O   0  0  0  0  0  0  0  0  0  0  0  0
   -3.8228   -0.2132    0.0639 C   0  0  0  0  0  0  0  0  0  0  0  0
   -3.0995    0.0417   -1.0984 C   0  0  0  0  0  0  0  0  0  0  0  0
   -1.6982    0.0136   -1.0726 C   0  0  0  0  0  0  0  0  0  0  0  0
   -0.9935   -0.2703    0.1136 C   0  0  0  0  0  0  0  0  0  0  0  0
   -1.7321   -0.5250    1.2788 C   0  0  0  0  0  0  0  0  0  0  0  0
   -3.1222   -0.4939    1.2413 C   0  0  0  0  0  0  0  0  0  0  0  0
   -3.8025   -0.7480    2.4022 O   0  0  0  0  0  0  0  0  0  0  0  0
    0.5270   -0.3006    0.1594 C   0  0  0  0  0  0  0  0  0  0  0  0
    1.1810   -1.6400   -0.9060 S   0  0  0  0  0  0  0  0  0  0  0  0
    2.7821   -0.9666   -1.4217 C   0  0  0  0  0  0  0  0  0  0  0  0
    3.5153   -0.1679   -0.3794 C   0  0  0  0  0  0  0  0  0  0  0  0
    2.9179    0.9612    0.2005 C   0  0  0  0  0  0  0  0  0  0  0  0
    1.2217    1.3541   -0.1694 S   0  0  0  0  0  0  0  0  0  0  0  0
    3.6379    1.7634    1.0901 C   0  0  0  0  0  0  0  0  0  0  0  0
    4.9518    1.4344    1.4219 C   0  0  0  0  0  0  0  0  0  0  0  0
    5.5494    0.3075    0.8620 C   0  0  0  0  0  0  0  0  0  0  0  0
    4.8385   -0.4868   -0.0390 C   0  0  0  0  0  0  0  0  0  0  0  0
   -6.9947    0.0146   -0.7386 H   0  0  0  0  0  0  0  0  0  0  0  0
   -5.7202    1.0659   -1.3675 H   0  0  0  0  0  0  0  0  0  0  0  0
   -5.7445   -0.6970   -1.7662 H   0  0  0  0  0  0  0  0  0  0  0  0
   -3.5858    0.2655   -2.0416 H   0  0  0  0  0  0  0  0  0  0  0  0
   -1.1540    0.2163   -1.9941 H   0  0  0  0  0  0  0  0  0  0  0  0
   -1.2369   -0.7488    2.2201 H   0  0  0  0  0  0  0  0  0  0  0  0
   -4.7460   -0.6794    2.1576 H   0  0  0  0  0  0  0  0  0  0  0  0
    0.8296   -0.5662    1.1794 H   0  0  0  0  0  0  0  0  0  0  0  0
    3.3907   -1.8209   -1.7390 H   0  0  0  0  0  0  0  0  0  0  0  0
    2.6400   -0.3508   -2.3179 H   0  0  0  0  0  0  0  0  0  0  0  0
    3.1785    2.6414    1.5382 H   0  0  0  0  0  0  0  0  0  0  0  0
    5.5078    2.0565    2.1187 H   0  0  0  0  0  0  0  0  0  0  0  0
    6.5745    0.0521    1.1200 H   0  0  0  0  0  0  0  0  0  0  0  0
    5.3296   -1.3515   -0.4810 H   0  0  0  0  0  0  0  0  0  0  0  0
  1  2  1  0
  2  3  1  0
  3  4  2  0
  4  5  1  0
  5  6  2  0
  6  7  1  0
  7  8  2  0
  8  9  1  0
  6 10  1  0
 10 11  1  0
 11 12  1  0
 12 13  1  0
 13 14  2  0
 14 15  1  0
 14 16  1  0
 16 17  2  0
 17 18  1  0
 18 19  2  0
  8  3  1  0
 15 10  1  0
 19 13  1  0
  1 20  1  0
  1 21  1  0
  1 22  1  0
  4 23  1  0
  5 24  1  0
  7 25  1  0
  9 26  1  0
 10 27  1  0
 12 28  1  0
 12 29  1  0
 16 30  1  0
 17 31  1  0
 18 32  1  0
 19 33  1  0
M  END
