
     RDKit          3D

 33 35  0  0  0  0  0  0  0  0999 V2000
   -5.6949    0.2274    1.3008 C   0  0  0  0  0  0  0  0  0  0  0  0
   -4.7200    1.2461    1.4926 O   0  0  0  0  0  0  0  0  0  0  0  0
   -3.4513    0.9678    1.0530 C   0  0  0  0  0  0  0  0  0  0  0  0
   -3.0283   -0.2138    0.4488 C   0  0  0  0  0  0  0  0  0  0  0  0
   -1.6928   -0.3569    0.0494 C   0  0  0  0  0  0  0  0  0  0  0  0
   -0.7565    0.6746    0.2500 C   0  0  0  0  0  0  0  0  0  0  0  0
   -1.1924    1.8636    0.8519 C   0  0  0  0  0  0  0  0  0  0  0  0
   -2.5200    1.9940    1.2453 C   0  0  0  0  0  0  0  0  0  0  0  0
   -2.9037    3.1693    1.8339 O   0  0  0  0  0  0  0  0  0  0  0  0
    0.6888    0.5294   -0.1948 C   0  0  0  0  0  0  0  0  0  0  0  0
    0.8368    0.8366   -1.9728 S   0  0  0  0  0  0  0  0  0  0  0  0
    2.6252    0.6699   -2.0191 C   0  0  0  0  0  0  0  0  0  0  0  0
    3.1652   -0.4509   -1.1749 C   0  0  0  0  0  0  0  0  0  0  0  0
    2.4356   -1.0757   -0.1557 C   0  0  0  0  0  0  0  0  0  0  0  0
    1.1461   -0.7730    0.1862 O   0  0  0  0  0  0  0  0  0  0  0  0
    2.9998   -2.1262    0.5753 C   0  0  0  0  0  0  0  0  0  0  0  0
    4.3060   -2.5422    0.3256 C   0  0  0  0  0  0  0  0  0  0  0  0
    5.0526   -1.9122   -0.6641 C   0  0  0  0  0  0  0  0  0  0  0  0
    4.4871   -0.8748   -1.4075 C   0  0  0  0  0  0  0  0  0  0  0  0
   -6.6461    0.5975    1.6953 H   0  0  0  0  0  0  0  0  0  0  0  0
   -5.8370    0.0122    0.2366 H   0  0  0  0  0  0  0  0  0  0  0  0
   -5.4337   -0.6786    1.8575 H   0  0  0  0  0  0  0  0  0  0  0  0
   -3.7037   -1.0431    0.2691 H   0  0  0  0  0  0  0  0  0  0  0  0
   -1.3796   -1.2852   -0.4273 H   0  0  0  0  0  0  0  0  0  0  0  0
   -0.5093    2.6926    1.0160 H   0  0  0  0  0  0  0  0  0  0  0  0
   -3.8557    3.0537    2.0213 H   0  0  0  0  0  0  0  0  0  0  0  0
    1.2880    1.2719    0.3499 H   0  0  0  0  0  0  0  0  0  0  0  0
    2.9106    0.5172   -3.0656 H   0  0  0  0  0  0  0  0  0  0  0  0
    3.0708    1.6137   -1.6857 H   0  0  0  0  0  0  0  0  0  0  0  0
    2.4162   -2.6188    1.3494 H   0  0  0  0  0  0  0  0  0  0  0  0
    4.7375   -3.3555    0.9027 H   0  0  0  0  0  0  0  0  0  0  0  0
    6.0728   -2.2311   -0.8622 H   0  0  0  0  0  0  0  0  0  0  0  0
    5.0858   -0.3998   -2.1830 H   0  0  0  0  0  0  0  0  0  0  0  0
  1  2  1  0
  2  3  1  0
  3  4  2  0
  4  5  1  0
  5  6  2  0
  6  7  1  0
  7  8  2  0
  8  9  1  0
  6 10  1  0
 10 11  1  0
 11 12  1  0
 12 13  1  0
 13 14  2  0
 14 15  1  0
 14 16  1  0
 16 17  2  0
 17 18  1  0
 18 19  2  0
  8  3  1  0
 15 10  1  0
 19 13  1  0
  1 20  1  0
  1 21  1  0
  1 22  1  0
  4 23  1  0
  5 24  1  0
  7 25  1  0
  9 26  1  0
 10 27  1  0
 12 28  1  0
 12 29  1  0
 16 30  1  0
 17 31  1  0
 18 32  1  0
 19 33  1  0
M  END
