
     RDKit          3D

 30 32  0  0  0  0  0  0  0  0999 V2000
    5.3271   -0.5268   -1.1286 C   0  0  0  0  0  0  0  0  0  0  0  0
    4.8087    0.0830    0.0480 O   0  0  0  0  0  0  0  0  0  0  0  0
    3.4433    0.1267    0.1630 C   0  0  0  0  0  0  0  0  0  0  0  0
    2.5215   -0.3662   -0.7570 C   0  0  0  0  0  0  0  0  0  0  0  0
    1.1476   -0.2504   -0.5041 C   0  0  0  0  0  0  0  0  0  0  0  0
    0.6687    0.3594    0.6716 C   0  0  0  0  0  0  0  0  0  0  0  0
    1.6055    0.8524    1.5914 C   0  0  0  0  0  0  0  0  0  0  0  0
    2.9665    0.7320    1.3300 C   0  0  0  0  0  0  0  0  0  0  0  0
    3.8449    1.2276    2.2561 O   0  0  0  0  0  0  0  0  0  0  0  0
   -0.8123    0.4933    0.9615 C   0  0  0  0  0  0  0  0  0  0  0  0
   -1.6370   -1.1323    1.1228 S   0  0  0  0  0  0  0  0  0  0  0  0
   -3.1481   -0.6560    0.3249 C   0  0  0  0  0  0  0  0  0  0  0  0
   -3.1631    0.5804   -0.3225 C   0  0  0  0  0  0  0  0  0  0  0  0
   -1.6693    1.5360   -0.2743 S   0  0  0  0  0  0  0  0  0  0  0  0
   -4.3088    1.0119   -0.9875 C   0  0  0  0  0  0  0  0  0  0  0  0
   -5.4452    0.2004   -0.9971 C   0  0  0  0  0  0  0  0  0  0  0  0
   -5.4302   -1.0374   -0.3490 C   0  0  0  0  0  0  0  0  0  0  0  0
   -4.2788   -1.4701    0.3121 C   0  0  0  0  0  0  0  0  0  0  0  0
    5.0180    0.0200   -2.0256 H   0  0  0  0  0  0  0  0  0  0  0  0
    5.0374   -1.5812   -1.1871 H   0  0  0  0  0  0  0  0  0  0  0  0
    6.4191   -0.4844   -1.0729 H   0  0  0  0  0  0  0  0  0  0  0  0
    2.8296   -0.8457   -1.6799 H   0  0  0  0  0  0  0  0  0  0  0  0
    0.4465   -0.6439   -1.2395 H   0  0  0  0  0  0  0  0  0  0  0  0
    1.2889    1.3318    2.5142 H   0  0  0  0  0  0  0  0  0  0  0  0
    4.7295    1.0435    1.8840 H   0  0  0  0  0  0  0  0  0  0  0  0
   -0.9539    0.9960    1.9248 H   0  0  0  0  0  0  0  0  0  0  0  0
   -4.3248    1.9712   -1.4978 H   0  0  0  0  0  0  0  0  0  0  0  0
   -6.3433    0.5318   -1.5131 H   0  0  0  0  0  0  0  0  0  0  0  0
   -6.3167   -1.6672   -0.3617 H   0  0  0  0  0  0  0  0  0  0  0  0
   -4.2715   -2.4360    0.8100 H   0  0  0  0  0  0  0  0  0  0  0  0
  1  2  1  0
  2  3  1  0
  3  4  2  0
  4  5  1  0
  5  6  2  0
  6  7  1  0
  7  8  2  0
  8  9  1  0
  6 10  1  0
 10 11  1  0
 11 12  1  0
 12 13  2  0
 13 14  1  0
 13 15  1  0
 15 16  2  0
 16 17  1  0
 17 18  2  0
  8  3  1  0
 14 10  1  0
 18 12  1  0
  1 19  1  0
  1 20  1  0
  1 21  1  0
  4 22  1  0
  5 23  1  0
  7 24  1  0
  9 25  1  0
 10 26  1  0
 15 27  1  0
 16 28  1  0
 17 29  1  0
 18 30  1  0
M  END
