
     RDKit          3D

 30 32  0  0  0  0  0  0  0  0999 V2000
    5.0729   -1.1373   -0.1003 C   0  0  0  0  0  0  0  0  0  0  0  0
    4.5746    0.1690    0.1653 O   0  0  0  0  0  0  0  0  0  0  0  0
    3.2110    0.3069    0.2043 C   0  0  0  0  0  0  0  0  0  0  0  0
    2.2736   -0.7055    0.0133 C   0  0  0  0  0  0  0  0  0  0  0  0
    0.9042   -0.4150    0.0825 C   0  0  0  0  0  0  0  0  0  0  0  0
    0.4485    0.8891    0.3482 C   0  0  0  0  0  0  0  0  0  0  0  0
    1.3983    1.9039    0.5310 C   0  0  0  0  0  0  0  0  0  0  0  0
    2.7544    1.6039    0.4610 C   0  0  0  0  0  0  0  0  0  0  0  0
    3.6488    2.6231    0.6503 O   0  0  0  0  0  0  0  0  0  0  0  0
   -1.0303    1.2154    0.4070 C   0  0  0  0  0  0  0  0  0  0  0  0
   -1.7379    0.1742    1.1294 O   0  0  0  0  0  0  0  0  0  0  0  0
   -2.8332   -0.2050    0.3939 C   0  0  0  0  0  0  0  0  0  0  0  0
   -3.0073    0.3561   -0.8655 C   0  0  0  0  0  0  0  0  0  0  0  0
   -1.7279    1.4867   -1.2474 S   0  0  0  0  0  0  0  0  0  0  0  0
   -4.0867    0.0002   -1.6588 C   0  0  0  0  0  0  0  0  0  0  0  0
   -5.0008   -0.9359   -1.1681 C   0  0  0  0  0  0  0  0  0  0  0  0
   -4.8232   -1.5027    0.1014 C   0  0  0  0  0  0  0  0  0  0  0  0
   -3.7303   -1.1377    0.8906 C   0  0  0  0  0  0  0  0  0  0  0  0
    4.7739   -1.8407    0.6839 H   0  0  0  0  0  0  0  0  0  0  0  0
    4.7567   -1.4869   -1.0886 H   0  0  0  0  0  0  0  0  0  0  0  0
    6.1658   -1.0837   -0.1002 H   0  0  0  0  0  0  0  0  0  0  0  0
    2.5661   -1.7294   -0.1927 H   0  0  0  0  0  0  0  0  0  0  0  0
    0.1872   -1.2198   -0.0747 H   0  0  0  0  0  0  0  0  0  0  0  0
    1.0934    2.9290    0.7253 H   0  0  0  0  0  0  0  0  0  0  0  0
    4.5269    2.2050    0.5560 H   0  0  0  0  0  0  0  0  0  0  0  0
   -1.1773    2.1331    0.9895 H   0  0  0  0  0  0  0  0  0  0  0  0
   -4.2220    0.4373   -2.6434 H   0  0  0  0  0  0  0  0  0  0  0  0
   -5.8547   -1.2276   -1.7754 H   0  0  0  0  0  0  0  0  0  0  0  0
   -5.5397   -2.2314    0.4733 H   0  0  0  0  0  0  0  0  0  0  0  0
   -3.5849   -1.5744    1.8734 H   0  0  0  0  0  0  0  0  0  0  0  0
  1  2  1  0
  2  3  1  0
  3  4  2  0
  4  5  1  0
  5  6  2  0
  6  7  1  0
  7  8  2  0
  8  9  1  0
  6 10  1  0
 10 11  1  0
 11 12  1  0
 12 13  2  0
 13 14  1  0
 13 15  1  0
 15 16  2  0
 16 17  1  0
 17 18  2  0
  8  3  1  0
 14 10  1  0
 18 12  1  0
  1 19  1  0
  1 20  1  0
  1 21  1  0
  4 22  1  0
  5 23  1  0
  7 24  1  0
  9 25  1  0
 10 26  1  0
 15 27  1  0
 16 28  1  0
 17 29  1  0
 18 30  1  0
M  END
