
     RDKit          3D

 36 38  0  0  0  0  0  0  0  0999 V2000
    6.1609    0.2129   -1.5028 C   0  0  0  0  0  0  0  0  0  0  0  0
    5.5805    0.5153   -0.2391 O   0  0  0  0  0  0  0  0  0  0  0  0
    4.2171    0.3994   -0.1506 C   0  0  0  0  0  0  0  0  0  0  0  0
    3.3536    0.0164   -1.1734 C   0  0  0  0  0  0  0  0  0  0  0  0
    1.9743   -0.0582   -0.9352 C   0  0  0  0  0  0  0  0  0  0  0  0
    1.4306    0.2479    0.3282 C   0  0  0  0  0  0  0  0  0  0  0  0
    2.3103    0.6326    1.3513 C   0  0  0  0  0  0  0  0  0  0  0  0
    3.6773    0.7031    1.1032 C   0  0  0  0  0  0  0  0  0  0  0  0
    4.4981    1.0832    2.1315 O   0  0  0  0  0  0  0  0  0  0  0  0
   -0.0659    0.1724    0.6055 C   0  0  0  0  0  0  0  0  0  0  0  0
   -0.6667   -1.5402    0.3992 S   0  0  0  0  0  0  0  0  0  0  0  0
   -2.2278   -1.4267    1.3132 C   0  0  0  0  0  0  0  0  0  0  0  0
   -3.3709   -0.9527    0.4499 C   0  0  0  0  0  0  0  0  0  0  0  0
   -3.5109    0.3974    0.0626 C   0  0  0  0  0  0  0  0  0  0  0  0
   -2.5271    1.4607    0.4849 C   0  0  0  0  0  0  0  0  0  0  0  0
   -0.9684    1.3711   -0.4360 S   0  0  0  0  0  0  0  0  0  0  0  0
   -4.5890    0.7630   -0.7647 C   0  0  0  0  0  0  0  0  0  0  0  0
   -5.5178   -0.1832   -1.1959 C   0  0  0  0  0  0  0  0  0  0  0  0
   -5.3800   -1.5122   -0.8147 C   0  0  0  0  0  0  0  0  0  0  0  0
   -4.3136   -1.8948   -0.0022 C   0  0  0  0  0  0  0  0  0  0  0  0
    5.8005    0.8984   -2.2769 H   0  0  0  0  0  0  0  0  0  0  0  0
    7.2429    0.3505   -1.4143 H   0  0  0  0  0  0  0  0  0  0  0  0
    5.9797   -0.8306   -1.7809 H   0  0  0  0  0  0  0  0  0  0  0  0
    3.7105   -0.2316   -2.1671 H   0  0  0  0  0  0  0  0  0  0  0  0
    1.3172   -0.3601   -1.7504 H   0  0  0  0  0  0  0  0  0  0  0  0
    1.9453    0.8797    2.3444 H   0  0  0  0  0  0  0  0  0  0  0  0
    5.3973    1.0667    1.7493 H   0  0  0  0  0  0  0  0  0  0  0  0
   -0.2188    0.4568    1.6523 H   0  0  0  0  0  0  0  0  0  0  0  0
   -2.4470   -2.4320    1.6919 H   0  0  0  0  0  0  0  0  0  0  0  0
   -2.1238   -0.8016    2.2065 H   0  0  0  0  0  0  0  0  0  0  0  0
   -2.3551    1.4306    1.5661 H   0  0  0  0  0  0  0  0  0  0  0  0
   -2.9532    2.4520    0.2908 H   0  0  0  0  0  0  0  0  0  0  0  0
   -4.7066    1.7953   -1.0897 H   0  0  0  0  0  0  0  0  0  0  0  0
   -6.3419    0.1169   -1.8378 H   0  0  0  0  0  0  0  0  0  0  0  0
   -6.0961   -2.2543   -1.1575 H   0  0  0  0  0  0  0  0  0  0  0  0
   -4.2154   -2.9442    0.2699 H   0  0  0  0  0  0  0  0  0  0  0  0
  1  2  1  0
  2  3  1  0
  3  4  2  0
  4  5  1  0
  5  6  2  0
  6  7  1  0
  7  8  2  0
  8  9  1  0
  6 10  1  0
 10 11  1  0
 11 12  1  0
 12 13  1  0
 13 14  2  0
 14 15  1  0
 15 16  1  0
 14 17  1  0
 17 18  2  0
 18 19  1  0
 19 20  2  0
  8  3  1  0
 16 10  1  0
 20 13  1  0
  1 21  1  0
  1 22  1  0
  1 23  1  0
  4 24  1  0
  5 25  1  0
  7 26  1  0
  9 27  1  0
 10 28  1  0
 12 29  1  0
 12 30  1  0
 15 31  1  0
 15 32  1  0
 17 33  1  0
 18 34  1  0
 19 35  1  0
 20 36  1  0
M  END
