
     RDKit          3D

 33 35  0  0  0  0  0  0  0  0999 V2000
    5.6222   -0.0442   -0.5203 C   0  0  0  0  0  0  0  0  0  0  0  0
    4.8866    0.0462    0.6945 O   0  0  0  0  0  0  0  0  0  0  0  0
    3.5216    0.1050    0.5801 C   0  0  0  0  0  0  0  0  0  0  0  0
    2.7924    0.1058   -0.6067 C   0  0  0  0  0  0  0  0  0  0  0  0
    1.3930    0.1721   -0.5698 C   0  0  0  0  0  0  0  0  0  0  0  0
    0.7002    0.2320    0.6520 C   0  0  0  0  0  0  0  0  0  0  0  0
    1.4400    0.2366    1.8420 C   0  0  0  0  0  0  0  0  0  0  0  0
    2.8284    0.1727    1.7932 C   0  0  0  0  0  0  0  0  0  0  0  0
    3.5144    0.1798    2.9781 O   0  0  0  0  0  0  0  0  0  0  0  0
   -0.8176    0.3316    0.7030 C   0  0  0  0  0  0  0  0  0  0  0  0
   -1.2480    1.7784    0.4660 C   0  0  0  0  0  0  0  0  0  0  0  0
   -3.0218    1.9480    0.8166 S   0  0  0  0  0  0  0  0  0  0  0  0
   -3.5838    0.4274    0.0710 C   0  0  0  0  0  0  0  0  0  0  0  0
   -2.7180   -0.5778   -0.3818 C   0  0  0  0  0  0  0  0  0  0  0  0
   -1.3498   -0.5450   -0.3026 O   0  0  0  0  0  0  0  0  0  0  0  0
   -3.2356   -1.7191   -1.0029 C   0  0  0  0  0  0  0  0  0  0  0  0
   -4.6126   -1.8818   -1.1494 C   0  0  0  0  0  0  0  0  0  0  0  0
   -5.4790   -0.8980   -0.6816 C   0  0  0  0  0  0  0  0  0  0  0  0
   -4.9666    0.2516   -0.0762 C   0  0  0  0  0  0  0  0  0  0  0  0
    5.4694    0.8450   -1.1408 H   0  0  0  0  0  0  0  0  0  0  0  0
    6.6849   -0.0924   -0.2639 H   0  0  0  0  0  0  0  0  0  0  0  0
    5.3699   -0.9584   -1.0678 H   0  0  0  0  0  0  0  0  0  0  0  0
    3.2736    0.0557   -1.5775 H   0  0  0  0  0  0  0  0  0  0  0  0
    0.8412    0.1699   -1.5090 H   0  0  0  0  0  0  0  0  0  0  0  0
    0.9474    0.2890    2.8096 H   0  0  0  0  0  0  0  0  0  0  0  0
    4.4556    0.1220    2.7222 H   0  0  0  0  0  0  0  0  0  0  0  0
   -1.1456   -0.0355    1.6866 H   0  0  0  0  0  0  0  0  0  0  0  0
   -0.7074    2.4739    1.1165 H   0  0  0  0  0  0  0  0  0  0  0  0
   -1.0765    2.0789   -0.5740 H   0  0  0  0  0  0  0  0  0  0  0  0
   -2.5596   -2.4895   -1.3657 H   0  0  0  0  0  0  0  0  0  0  0  0
   -5.0070   -2.7754   -1.6263 H   0  0  0  0  0  0  0  0  0  0  0  0
   -6.5536   -1.0201   -0.7922 H   0  0  0  0  0  0  0  0  0  0  0  0
   -5.6585    1.0155    0.2729 H   0  0  0  0  0  0  0  0  0  0  0  0
  1  2  1  0
  2  3  1  0
  3  4  2  0
  4  5  1  0
  5  6  2  0
  6  7  1  0
  7  8  2  0
  8  9  1  0
  6 10  1  0
 10 11  1  0
 11 12  1  0
 12 13  1  0
 13 14  2  0
 14 15  1  0
 14 16  1  0
 16 17  2  0
 17 18  1  0
 18 19  2  0
  8  3  1  0
 15 10  1  0
 19 13  1  0
  1 20  1  0
  1 21  1  0
  1 22  1  0
  4 23  1  0
  5 24  1  0
  7 25  1  0
  9 26  1  0
 10 27  1  0
 11 28  1  0
 11 29  1  0
 16 30  1  0
 17 31  1  0
 18 32  1  0
 19 33  1  0
M  END
