
     RDKit          3D

 33 35  0  0  0  0  0  0  0  0999 V2000
    5.6482    1.5483    0.7282 C   0  0  0  0  0  0  0  0  0  0  0  0
    5.1087    0.3554    0.1707 O   0  0  0  0  0  0  0  0  0  0  0  0
    3.7439    0.2289    0.1997 C   0  0  0  0  0  0  0  0  0  0  0  0
    2.8418    1.1433    0.7377 C   0  0  0  0  0  0  0  0  0  0  0  0
    1.4655    0.8792    0.6974 C   0  0  0  0  0  0  0  0  0  0  0  0
    0.9666   -0.3028    0.1187 C   0  0  0  0  0  0  0  0  0  0  0  0
    1.8822   -1.2153   -0.4243 C   0  0  0  0  0  0  0  0  0  0  0  0
    3.2456   -0.9437   -0.3763 C   0  0  0  0  0  0  0  0  0  0  0  0
    4.1042   -1.8646   -0.9141 O   0  0  0  0  0  0  0  0  0  0  0  0
   -0.5244   -0.6130    0.0699 C   0  0  0  0  0  0  0  0  0  0  0  0
   -1.1503   -0.5730    1.4629 C   0  0  0  0  0  0  0  0  0  0  0  0
   -2.7409   -1.4518    1.5181 S   0  0  0  0  0  0  0  0  0  0  0  0
   -3.6334   -0.6894    0.1671 C   0  0  0  0  0  0  0  0  0  0  0  0
   -3.0878    0.1100   -0.8521 C   0  0  0  0  0  0  0  0  0  0  0  0
   -1.3694    0.5699   -1.0452 S   0  0  0  0  0  0  0  0  0  0  0  0
   -3.9459    0.6365   -1.8370 C   0  0  0  0  0  0  0  0  0  0  0  0
   -5.3149    0.3684   -1.8281 C   0  0  0  0  0  0  0  0  0  0  0  0
   -5.8511   -0.4317   -0.8298 C   0  0  0  0  0  0  0  0  0  0  0  0
   -5.0162   -0.9557    0.1575 C   0  0  0  0  0  0  0  0  0  0  0  0
    5.2971    2.4320    0.1852 H   0  0  0  0  0  0  0  0  0  0  0  0
    5.4200    1.6225    1.7966 H   0  0  0  0  0  0  0  0  0  0  0  0
    6.7364    1.5034    0.6227 H   0  0  0  0  0  0  0  0  0  0  0  0
    3.1682    2.0725    1.1923 H   0  0  0  0  0  0  0  0  0  0  0  0
    0.7832    1.6182    1.1143 H   0  0  0  0  0  0  0  0  0  0  0  0
    1.5468   -2.1395   -0.8883 H   0  0  0  0  0  0  0  0  0  0  0  0
    4.9938   -1.4813   -0.7865 H   0  0  0  0  0  0  0  0  0  0  0  0
   -0.6479   -1.6133   -0.3649 H   0  0  0  0  0  0  0  0  0  0  0  0
   -1.2891    0.4494    1.8345 H   0  0  0  0  0  0  0  0  0  0  0  0
   -0.5001   -1.0819    2.1843 H   0  0  0  0  0  0  0  0  0  0  0  0
   -3.5481    1.2645   -2.6330 H   0  0  0  0  0  0  0  0  0  0  0  0
   -5.9560    0.7835   -2.6016 H   0  0  0  0  0  0  0  0  0  0  0  0
   -6.9158   -0.6496   -0.8145 H   0  0  0  0  0  0  0  0  0  0  0  0
   -5.4608   -1.5794    0.9318 H   0  0  0  0  0  0  0  0  0  0  0  0
  1  2  1  0
  2  3  1  0
  3  4  2  0
  4  5  1  0
  5  6  2  0
  6  7  1  0
  7  8  2  0
  8  9  1  0
  6 10  1  0
 10 11  1  0
 11 12  1  0
 12 13  1  0
 13 14  2  0
 14 15  1  0
 14 16  1  0
 16 17  2  0
 17 18  1  0
 18 19  2  0
  8  3  1  0
 15 10  1  0
 19 13  1  0
  1 20  1  0
  1 21  1  0
  1 22  1  0
  4 23  1  0
  5 24  1  0
  7 25  1  0
  9 26  1  0
 10 27  1  0
 11 28  1  0
 11 29  1  0
 16 30  1  0
 17 31  1  0
 18 32  1  0
 19 33  1  0
M  END
