
     RDKit          3D

 45 46  0  0  0  0  0  0  0  0999 V2000
    4.3713    2.0336    1.4944 O   0  0  0  0  0  0  0  0  0  0  0  0
    4.5095    0.7655    0.8468 C   0  0  0  0  0  0  0  0  0  0  0  0
    3.5082    0.6768   -0.3100 C   0  0  0  0  0  0  0  0  0  0  0  0
    2.1901    0.5055    0.2540 O   0  0  0  0  0  0  0  0  0  0  0  0
    1.1611    0.4993   -0.7341 C   0  0  0  0  0  0  0  0  0  0  0  0
   -0.1156    0.3290   -0.1034 O   0  0  0  0  0  0  0  0  0  0  0  0
   -0.4283    1.4383    0.7494 C   0  0  0  0  0  0  0  0  0  0  0  0
   -1.8438    1.2984    1.3162 C   0  0  0  0  0  0  0  0  0  0  0  0
   -2.7918    1.4408    0.2188 O   0  0  0  0  0  0  0  0  0  0  0  0
   -3.6581    0.3043    0.2487 C   0  0  0  0  0  0  0  0  0  0  0  0
   -2.8235   -0.8246    0.8646 C   0  0  0  0  0  0  0  0  0  0  0  0
   -2.1118   -0.0645    1.9734 C   0  0  0  0  0  0  0  0  0  0  0  0
   -3.0063    0.0761    3.0951 O   0  0  0  0  0  0  0  0  0  0  0  0
   -3.6083   -1.9175    1.3350 O   0  0  0  0  0  0  0  0  0  0  0  0
   -4.7557    0.6137    1.1253 O   0  0  0  0  0  0  0  0  0  0  0  0
   -4.1819   -0.0534   -1.1506 C   0  0  0  0  0  0  0  0  0  0  0  0
   -5.1961   -1.0574   -1.0865 O   0  0  0  0  0  0  0  0  0  0  0  0
    1.3609   -0.6972   -1.6857 C   0  0  0  0  0  0  0  0  0  0  0  0
    2.7463   -0.5976   -2.3318 C   0  0  0  0  0  0  0  0  0  0  0  0
    3.8413   -0.4895   -1.2559 C   0  0  0  0  0  0  0  0  0  0  0  0
    3.9399   -1.7233   -0.5260 O   0  0  0  0  0  0  0  0  0  0  0  0
    2.9839   -1.7357   -3.1633 O   0  0  0  0  0  0  0  0  0  0  0  0
    1.2830   -1.9334   -0.9324 O   0  0  0  0  0  0  0  0  0  0  0  0
    4.9156    1.9947    2.3008 H   0  0  0  0  0  0  0  0  0  0  0  0
    5.5399    0.6907    0.4861 H   0  0  0  0  0  0  0  0  0  0  0  0
    4.3220   -0.0136    1.5936 H   0  0  0  0  0  0  0  0  0  0  0  0
    3.5134    1.6263   -0.8620 H   0  0  0  0  0  0  0  0  0  0  0  0
    1.1675    1.4419   -1.2966 H   0  0  0  0  0  0  0  0  0  0  0  0
   -0.3621    2.3648    0.1659 H   0  0  0  0  0  0  0  0  0  0  0  0
    0.2901    1.4764    1.5751 H   0  0  0  0  0  0  0  0  0  0  0  0
   -2.0369    2.1220    2.0128 H   0  0  0  0  0  0  0  0  0  0  0  0
   -2.0982   -1.2088    0.1397 H   0  0  0  0  0  0  0  0  0  0  0  0
   -1.2159   -0.5697    2.3449 H   0  0  0  0  0  0  0  0  0  0  0  0
   -3.8038    0.5490    2.7645 H   0  0  0  0  0  0  0  0  0  0  0  0
   -3.9041   -1.6539    2.2321 H   0  0  0  0  0  0  0  0  0  0  0  0
   -5.5349    0.7229    0.5470 H   0  0  0  0  0  0  0  0  0  0  0  0
   -3.3740   -0.3954   -1.8062 H   0  0  0  0  0  0  0  0  0  0  0  0
   -4.6274    0.8290   -1.6227 H   0  0  0  0  0  0  0  0  0  0  0  0
   -4.8755   -1.7622   -0.4851 H   0  0  0  0  0  0  0  0  0  0  0  0
    0.5691   -0.7480   -2.4409 H   0  0  0  0  0  0  0  0  0  0  0  0
    2.7824    0.2883   -2.9766 H   0  0  0  0  0  0  0  0  0  0  0  0
    4.8160   -0.3361   -1.7313 H   0  0  0  0  0  0  0  0  0  0  0  0
    3.0249   -1.9753   -0.2719 H   0  0  0  0  0  0  0  0  0  0  0  0
    3.0206   -2.5017   -2.5531 H   0  0  0  0  0  0  0  0  0  0  0  0
    0.4971   -1.8284   -0.3582 H   0  0  0  0  0  0  0  0  0  0  0  0
  1  2  1  0
  2  3  1  0
  3  4  1  0
  4  5  1  0
  5  6  1  0
  6  7  1  0
  7  8  1  0
  8  9  1  0
  9 10  1  0
 10 11  1  0
 11 12  1  0
 12 13  1  0
 11 14  1  0
 10 15  1  0
 10 16  1  0
 16 17  1  0
  5 18  1  0
 18 19  1  0
 19 20  1  0
 20 21  1  0
 19 22  1  0
 18 23  1  0
 20  3  1  0
 12  8  1  0
  1 24  1  0
  2 25  1  0
  2 26  1  0
  3 27  1  0
  5 28  1  0
  7 29  1  0
  7 30  1  0
  8 31  1  0
 11 32  1  0
 12 33  1  0
 13 34  1  0
 14 35  1  0
 15 36  1  0
 16 37  1  0
 16 38  1  0
 17 39  1  0
 18 40  1  0
 19 41  1  0
 20 42  1  0
 21 43  1  0
 22 44  1  0
 23 45  1  0
M  END
