
     RDKit          3D

 33 35  0  0  0  0  0  0  0  0999 V2000
    5.7749    0.1868   -0.9842 C   0  0  0  0  0  0  0  0  0  0  0  0
    4.9713    1.7886   -0.7050 S   0  0  0  0  0  0  0  0  0  0  0  0
    3.3080    1.2416   -0.3399 C   0  0  0  0  0  0  0  0  0  0  0  0
    2.5911    0.4380   -1.2295 C   0  0  0  0  0  0  0  0  0  0  0  0
    1.2888    0.0283   -0.9212 C   0  0  0  0  0  0  0  0  0  0  0  0
    0.6723    0.4267    0.2766 C   0  0  0  0  0  0  0  0  0  0  0  0
    1.3913    1.2412    1.1631 C   0  0  0  0  0  0  0  0  0  0  0  0
    2.6867    1.6444    0.8483 C   0  0  0  0  0  0  0  0  0  0  0  0
    3.3282    2.4468    1.7539 O   0  0  0  0  0  0  0  0  0  0  0  0
   -0.7338   -0.0307    0.6390 C   0  0  0  0  0  0  0  0  0  0  0  0
   -0.6838   -1.4451    1.2147 C   0  0  0  0  0  0  0  0  0  0  0  0
   -2.3045   -1.8723    1.9134 S   0  0  0  0  0  0  0  0  0  0  0  0
   -3.3345   -1.1692    0.6371 C   0  0  0  0  0  0  0  0  0  0  0  0
   -2.8421   -0.3553   -0.3927 C   0  0  0  0  0  0  0  0  0  0  0  0
   -1.5339    0.0220   -0.5524 O   0  0  0  0  0  0  0  0  0  0  0  0
   -3.7067    0.1152   -1.3863 C   0  0  0  0  0  0  0  0  0  0  0  0
   -5.0658   -0.1934   -1.3455 C   0  0  0  0  0  0  0  0  0  0  0  0
   -5.5653   -0.9823   -0.3132 C   0  0  0  0  0  0  0  0  0  0  0  0
   -4.7033   -1.4691    0.6719 C   0  0  0  0  0  0  0  0  0  0  0  0
    5.6154   -0.4770   -0.1299 H   0  0  0  0  0  0  0  0  0  0  0  0
    6.8501    0.3448   -1.1042 H   0  0  0  0  0  0  0  0  0  0  0  0
    5.3952   -0.2882   -1.8923 H   0  0  0  0  0  0  0  0  0  0  0  0
    3.0255    0.1316   -2.1774 H   0  0  0  0  0  0  0  0  0  0  0  0
    0.7500   -0.5966   -1.6321 H   0  0  0  0  0  0  0  0  0  0  0  0
    0.9499    1.5723    2.1003 H   0  0  0  0  0  0  0  0  0  0  0  0
    4.1860    2.6772    1.3474 H   0  0  0  0  0  0  0  0  0  0  0  0
   -1.1459    0.6892    1.3612 H   0  0  0  0  0  0  0  0  0  0  0  0
   -0.4425   -2.1816    0.4396 H   0  0  0  0  0  0  0  0  0  0  0  0
    0.0612   -1.5318    2.0125 H   0  0  0  0  0  0  0  0  0  0  0  0
   -3.3179    0.7341   -2.1913 H   0  0  0  0  0  0  0  0  0  0  0  0
   -5.7323    0.1827   -2.1174 H   0  0  0  0  0  0  0  0  0  0  0  0
   -6.6243   -1.2251   -0.2759 H   0  0  0  0  0  0  0  0  0  0  0  0
   -5.1095   -2.0939    1.4647 H   0  0  0  0  0  0  0  0  0  0  0  0
  1  2  1  0
  2  3  1  0
  3  4  2  0
  4  5  1  0
  5  6  2  0
  6  7  1  0
  7  8  2  0
  8  9  1  0
  6 10  1  0
 10 11  1  0
 11 12  1  0
 12 13  1  0
 13 14  2  0
 14 15  1  0
 14 16  1  0
 16 17  2  0
 17 18  1  0
 18 19  2  0
  8  3  1  0
 15 10  1  0
 19 13  1  0
  1 20  1  0
  1 21  1  0
  1 22  1  0
  4 23  1  0
  5 24  1  0
  7 25  1  0
  9 26  1  0
 10 27  1  0
 11 28  1  0
 11 29  1  0
 16 30  1  0
 17 31  1  0
 18 32  1  0
 19 33  1  0
M  END
