
     RDKit          3D

 34 36  0  0  0  0  0  0  0  0999 V2000
    5.8037    0.1221   -0.8421 C   0  0  0  0  0  0  0  0  0  0  0  0
    5.1290    0.1671    0.4101 O   0  0  0  0  0  0  0  0  0  0  0  0
    3.7631    0.0560    0.3733 C   0  0  0  0  0  0  0  0  0  0  0  0
    2.9799   -0.1202   -0.7651 C   0  0  0  0  0  0  0  0  0  0  0  0
    1.5868   -0.2198   -0.6494 C   0  0  0  0  0  0  0  0  0  0  0  0
    0.9539   -0.1383    0.6033 C   0  0  0  0  0  0  0  0  0  0  0  0
    1.7480    0.0330    1.7450 C   0  0  0  0  0  0  0  0  0  0  0  0
    3.1297    0.1282    1.6184 C   0  0  0  0  0  0  0  0  0  0  0  0
    3.8696    0.2948    2.7581 O   0  0  0  0  0  0  0  0  0  0  0  0
   -0.5555   -0.2724    0.7440 C   0  0  0  0  0  0  0  0  0  0  0  0
   -0.9454   -1.7497    0.7323 C   0  0  0  0  0  0  0  0  0  0  0  0
   -2.6945   -1.9183    1.1927 S   0  0  0  0  0  0  0  0  0  0  0  0
   -3.3451   -0.5341    0.2714 C   0  0  0  0  0  0  0  0  0  0  0  0
   -2.5351    0.4219   -0.3600 C   0  0  0  0  0  0  0  0  0  0  0  0
   -1.1648    0.4383   -0.3453 O   0  0  0  0  0  0  0  0  0  0  0  0
   -3.1190    1.4494   -1.1078 C   0  0  0  0  0  0  0  0  0  0  0  0
   -4.5058    1.5492   -1.2057 C   0  0  0  0  0  0  0  0  0  0  0  0
   -5.3052    0.6150   -0.5616 C   0  0  0  0  0  0  0  0  0  0  0  0
   -4.7397   -0.4240    0.1730 C   0  0  0  0  0  0  0  0  0  0  0  0
   -6.6569    0.7488   -0.6799 O   0  0  0  0  0  0  0  0  0  0  0  0
    6.8748    0.2340   -0.6481 H   0  0  0  0  0  0  0  0  0  0  0  0
    5.6539   -0.8436   -1.3361 H   0  0  0  0  0  0  0  0  0  0  0  0
    5.4938    0.9504   -1.4878 H   0  0  0  0  0  0  0  0  0  0  0  0
    3.4135   -0.1842   -1.7573 H   0  0  0  0  0  0  0  0  0  0  0  0
    0.9926   -0.3558   -1.5522 H   0  0  0  0  0  0  0  0  0  0  0  0
    1.3032    0.0943    2.7349 H   0  0  0  0  0  0  0  0  0  0  0  0
    4.7955    0.3457    2.4498 H   0  0  0  0  0  0  0  0  0  0  0  0
   -0.8504    0.2200    1.6822 H   0  0  0  0  0  0  0  0  0  0  0  0
   -0.8118   -2.1882   -0.2633 H   0  0  0  0  0  0  0  0  0  0  0  0
   -0.3515   -2.3315    1.4448 H   0  0  0  0  0  0  0  0  0  0  0  0
   -2.4894    2.1808   -1.6083 H   0  0  0  0  0  0  0  0  0  0  0  0
   -4.9586    2.3523   -1.7802 H   0  0  0  0  0  0  0  0  0  0  0  0
   -5.3745   -1.1564    0.6635 H   0  0  0  0  0  0  0  0  0  0  0  0
   -7.0879    0.0353   -0.1806 H   0  0  0  0  0  0  0  0  0  0  0  0
  1  2  1  0
  2  3  1  0
  3  4  2  0
  4  5  1  0
  5  6  2  0
  6  7  1  0
  7  8  2  0
  8  9  1  0
  6 10  1  0
 10 11  1  0
 11 12  1  0
 12 13  1  0
 13 14  2  0
 14 15  1  0
 14 16  1  0
 16 17  2  0
 17 18  1  0
 18 19  2  0
 18 20  1  0
  8  3  1  0
 15 10  1  0
 19 13  1  0
  1 21  1  0
  1 22  1  0
  1 23  1  0
  4 24  1  0
  5 25  1  0
  7 26  1  0
  9 27  1  0
 10 28  1  0
 11 29  1  0
 11 30  1  0
 16 31  1  0
 17 32  1  0
 19 33  1  0
 20 34  1  0
M  END
