
     RDKit          3D

 34 36  0  0  0  0  0  0  0  0999 V2000
   -5.6894    0.6144   -1.6261 C   0  0  0  0  0  0  0  0  0  0  0  0
   -5.4939   -0.7573   -0.4556 S   0  0  0  0  0  0  0  0  0  0  0  0
   -3.7219   -0.7066   -0.2206 C   0  0  0  0  0  0  0  0  0  0  0  0
   -3.0823    0.4438    0.2467 C   0  0  0  0  0  0  0  0  0  0  0  0
   -1.6948    0.4575    0.4281 C   0  0  0  0  0  0  0  0  0  0  0  0
   -0.9200   -0.6803    0.1469 C   0  0  0  0  0  0  0  0  0  0  0  0
   -1.5681   -1.8397   -0.3026 C   0  0  0  0  0  0  0  0  0  0  0  0
   -2.9499   -1.8458   -0.4766 C   0  0  0  0  0  0  0  0  0  0  0  0
   -3.5198   -3.0133   -0.9093 O   0  0  0  0  0  0  0  0  0  0  0  0
    0.5865   -0.6903    0.3635 C   0  0  0  0  0  0  0  0  0  0  0  0
    0.8952   -0.9189    1.8423 C   0  0  0  0  0  0  0  0  0  0  0  0
    2.6741   -1.2224    2.0488 S   0  0  0  0  0  0  0  0  0  0  0  0
    3.2861    0.0080    0.9087 C   0  0  0  0  0  0  0  0  0  0  0  0
    2.4600    0.7230    0.0282 C   0  0  0  0  0  0  0  0  0  0  0  0
    1.1032    0.5702   -0.0911 O   0  0  0  0  0  0  0  0  0  0  0  0
    3.0071    1.7091   -0.7991 C   0  0  0  0  0  0  0  0  0  0  0  0
    4.3766    1.9667   -0.7775 C   0  0  0  0  0  0  0  0  0  0  0  0
    5.1947    1.2425    0.0785 C   0  0  0  0  0  0  0  0  0  0  0  0
    4.6639    0.2690    0.9209 C   0  0  0  0  0  0  0  0  0  0  0  0
    6.5290    1.5230    0.0680 O   0  0  0  0  0  0  0  0  0  0  0  0
   -6.7283    0.6473   -1.9650 H   0  0  0  0  0  0  0  0  0  0  0  0
   -5.0447    0.4700   -2.4975 H   0  0  0  0  0  0  0  0  0  0  0  0
   -5.4532    1.5700   -1.1511 H   0  0  0  0  0  0  0  0  0  0  0  0
   -3.6511    1.3386    0.4858 H   0  0  0  0  0  0  0  0  0  0  0  0
   -1.2189    1.3676    0.7906 H   0  0  0  0  0  0  0  0  0  0  0  0
   -1.0065   -2.7458   -0.5179 H   0  0  0  0  0  0  0  0  0  0  0  0
   -4.4826   -2.8497   -0.9321 H   0  0  0  0  0  0  0  0  0  0  0  0
    1.0117   -1.4833   -0.2691 H   0  0  0  0  0  0  0  0  0  0  0  0
    0.3565   -1.7855    2.2396 H   0  0  0  0  0  0  0  0  0  0  0  0
    0.6272   -0.0433    2.4447 H   0  0  0  0  0  0  0  0  0  0  0  0
    2.3634    2.2724   -1.4700 H   0  0  0  0  0  0  0  0  0  0  0  0
    4.8020    2.7274   -1.4259 H   0  0  0  0  0  0  0  0  0  0  0  0
    5.3117   -0.2839    1.5952 H   0  0  0  0  0  0  0  0  0  0  0  0
    6.9765    0.9457    0.7088 H   0  0  0  0  0  0  0  0  0  0  0  0
  1  2  1  0
  2  3  1  0
  3  4  2  0
  4  5  1  0
  5  6  2  0
  6  7  1  0
  7  8  2  0
  8  9  1  0
  6 10  1  0
 10 11  1  0
 11 12  1  0
 12 13  1  0
 13 14  2  0
 14 15  1  0
 14 16  1  0
 16 17  2  0
 17 18  1  0
 18 19  2  0
 18 20  1  0
  8  3  1  0
 15 10  1  0
 19 13  1  0
  1 21  1  0
  1 22  1  0
  1 23  1  0
  4 24  1  0
  5 25  1  0
  7 26  1  0
  9 27  1  0
 10 28  1  0
 11 29  1  0
 11 30  1  0
 16 31  1  0
 17 32  1  0
 19 33  1  0
 20 34  1  0
M  END
