
     RDKit          3D

 35 37  0  0  0  0  0  0  0  0999 V2000
    5.9707   -0.8524    0.0261 C   0  0  0  0  0  0  0  0  0  0  0  0
    5.2379    0.2267    0.5949 O   0  0  0  0  0  0  0  0  0  0  0  0
    3.8771    0.1952    0.4306 C   0  0  0  0  0  0  0  0  0  0  0  0
    3.1514   -0.7732   -0.2586 C   0  0  0  0  0  0  0  0  0  0  0  0
    1.7558   -0.6745   -0.3461 C   0  0  0  0  0  0  0  0  0  0  0  0
    1.0607    0.3916    0.2533 C   0  0  0  0  0  0  0  0  0  0  0  0
    1.7992    1.3595    0.9484 C   0  0  0  0  0  0  0  0  0  0  0  0
    3.1839    1.2536    1.0263 C   0  0  0  0  0  0  0  0  0  0  0  0
    3.8664    2.2238    1.7105 O   0  0  0  0  0  0  0  0  0  0  0  0
   -0.4511    0.5183    0.1642 C   0  0  0  0  0  0  0  0  0  0  0  0
   -0.9403    0.5492   -1.2841 C   0  0  0  0  0  0  0  0  0  0  0  0
   -2.4016    0.9768   -1.3601 C   0  0  0  0  0  0  0  0  0  0  0  0
   -3.3538    0.1192   -0.5680 C   0  0  0  0  0  0  0  0  0  0  0  0
   -2.9558   -0.6774    0.5169 C   0  0  0  0  0  0  0  0  0  0  0  0
   -1.2703   -0.8331    1.0851 S   0  0  0  0  0  0  0  0  0  0  0  0
   -3.9187   -1.4287    1.2088 C   0  0  0  0  0  0  0  0  0  0  0  0
   -5.2650   -1.3811    0.8461 C   0  0  0  0  0  0  0  0  0  0  0  0
   -5.6652   -0.5793   -0.2154 C   0  0  0  0  0  0  0  0  0  0  0  0
   -4.7177    0.1676   -0.9143 C   0  0  0  0  0  0  0  0  0  0  0  0
    5.8603   -0.8731   -1.0631 H   0  0  0  0  0  0  0  0  0  0  0  0
    5.6774   -1.8081    0.4729 H   0  0  0  0  0  0  0  0  0  0  0  0
    7.0296   -0.6913    0.2502 H   0  0  0  0  0  0  0  0  0  0  0  0
    3.6319   -1.6196   -0.7372 H   0  0  0  0  0  0  0  0  0  0  0  0
    1.2110   -1.4507   -0.8811 H   0  0  0  0  0  0  0  0  0  0  0  0
    1.3078    2.1983    1.4344 H   0  0  0  0  0  0  0  0  0  0  0  0
    4.8040    1.9551    1.6540 H   0  0  0  0  0  0  0  0  0  0  0  0
   -0.7498    1.4540    0.6541 H   0  0  0  0  0  0  0  0  0  0  0  0
   -0.3442    1.2665   -1.8637 H   0  0  0  0  0  0  0  0  0  0  0  0
   -0.8084   -0.4251   -1.7737 H   0  0  0  0  0  0  0  0  0  0  0  0
   -2.6991    0.9664   -2.4164 H   0  0  0  0  0  0  0  0  0  0  0  0
   -2.4997    2.0118   -1.0082 H   0  0  0  0  0  0  0  0  0  0  0  0
   -3.6248   -2.0595    2.0457 H   0  0  0  0  0  0  0  0  0  0  0  0
   -5.9966   -1.9674    1.3955 H   0  0  0  0  0  0  0  0  0  0  0  0
   -6.7132   -0.5333   -0.4995 H   0  0  0  0  0  0  0  0  0  0  0  0
   -5.0495    0.7940   -1.7404 H   0  0  0  0  0  0  0  0  0  0  0  0
  1  2  1  0
  2  3  1  0
  3  4  2  0
  4  5  1  0
  5  6  2  0
  6  7  1  0
  7  8  2  0
  8  9  1  0
  6 10  1  0
 10 11  1  0
 11 12  1  0
 12 13  1  0
 13 14  2  0
 14 15  1  0
 14 16  1  0
 16 17  2  0
 17 18  1  0
 18 19  2  0
  8  3  1  0
 15 10  1  0
 19 13  1  0
  1 20  1  0
  1 21  1  0
  1 22  1  0
  4 23  1  0
  5 24  1  0
  7 25  1  0
  9 26  1  0
 10 27  1  0
 11 28  1  0
 11 29  1  0
 12 30  1  0
 12 31  1  0
 16 32  1  0
 17 33  1  0
 18 34  1  0
 19 35  1  0
M  END
