
     RDKit          3D

 35 37  0  0  0  0  0  0  0  0999 V2000
    5.7997    1.2788    0.3065 C   0  0  0  0  0  0  0  0  0  0  0  0
    4.8466    0.6990    1.1899 O   0  0  0  0  0  0  0  0  0  0  0  0
    3.6046    0.4445    0.6686 C   0  0  0  0  0  0  0  0  0  0  0  0
    3.1870    0.7049   -0.6342 C   0  0  0  0  0  0  0  0  0  0  0  0
    1.8793    0.3898   -1.0288 C   0  0  0  0  0  0  0  0  0  0  0  0
    0.9684   -0.1911   -0.1305 C   0  0  0  0  0  0  0  0  0  0  0  0
    1.3949   -0.4488    1.1793 C   0  0  0  0  0  0  0  0  0  0  0  0
    2.6947   -0.1316    1.5602 C   0  0  0  0  0  0  0  0  0  0  0  0
    3.0705   -0.4000    2.8492 O   0  0  0  0  0  0  0  0  0  0  0  0
   -0.4455   -0.5192   -0.5933 C   0  0  0  0  0  0  0  0  0  0  0  0
   -0.7599   -2.0055   -0.4169 C   0  0  0  0  0  0  0  0  0  0  0  0
   -2.2940   -2.4623   -1.2788 S   0  0  0  0  0  0  0  0  0  0  0  0
   -3.3567   -1.0915   -0.8524 C   0  0  0  0  0  0  0  0  0  0  0  0
   -2.9126    0.0961   -0.2500 C   0  0  0  0  0  0  0  0  0  0  0  0
   -1.4783    0.3377    0.1546 C   0  0  0  0  0  0  0  0  0  0  0  0
   -3.8512    1.1035    0.0454 C   0  0  0  0  0  0  0  0  0  0  0  0
   -5.1993    0.9479   -0.2742 C   0  0  0  0  0  0  0  0  0  0  0  0
   -5.6321   -0.2210   -0.8875 C   0  0  0  0  0  0  0  0  0  0  0  0
   -4.7158   -1.2332   -1.1740 C   0  0  0  0  0  0  0  0  0  0  0  0
    5.4698    2.2645   -0.0379 H   0  0  0  0  0  0  0  0  0  0  0  0
    6.0114    0.6140   -0.5374 H   0  0  0  0  0  0  0  0  0  0  0  0
    6.7313    1.4158    0.8641 H   0  0  0  0  0  0  0  0  0  0  0  0
    3.8468    1.1510   -1.3705 H   0  0  0  0  0  0  0  0  0  0  0  0
    1.5782    0.6040   -2.0531 H   0  0  0  0  0  0  0  0  0  0  0  0
    0.7295   -0.8933    1.9144 H   0  0  0  0  0  0  0  0  0  0  0  0
    4.0014   -0.1083    2.9039 H   0  0  0  0  0  0  0  0  0  0  0  0
   -0.5077   -0.2774   -1.6646 H   0  0  0  0  0  0  0  0  0  0  0  0
    0.0439   -2.6251   -0.8300 H   0  0  0  0  0  0  0  0  0  0  0  0
   -0.8643   -2.2745    0.6405 H   0  0  0  0  0  0  0  0  0  0  0  0
   -1.4103    0.1674    1.2373 H   0  0  0  0  0  0  0  0  0  0  0  0
   -1.2359    1.3960   -0.0142 H   0  0  0  0  0  0  0  0  0  0  0  0
   -3.5300    2.0234    0.5310 H   0  0  0  0  0  0  0  0  0  0  0  0
   -5.9090    1.7378   -0.0426 H   0  0  0  0  0  0  0  0  0  0  0  0
   -6.6809   -0.3501   -1.1409 H   0  0  0  0  0  0  0  0  0  0  0  0
   -5.0745   -2.1432   -1.6512 H   0  0  0  0  0  0  0  0  0  0  0  0
  1  2  1  0
  2  3  1  0
  3  4  2  0
  4  5  1  0
  5  6  2  0
  6  7  1  0
  7  8  2  0
  8  9  1  0
  6 10  1  0
 10 11  1  0
 11 12  1  0
 12 13  1  0
 13 14  2  0
 14 15  1  0
 14 16  1  0
 16 17  2  0
 17 18  1  0
 18 19  2  0
  8  3  1  0
 15 10  1  0
 19 13  1  0
  1 20  1  0
  1 21  1  0
  1 22  1  0
  4 23  1  0
  5 24  1  0
  7 25  1  0
  9 26  1  0
 10 27  1  0
 11 28  1  0
 11 29  1  0
 15 30  1  0
 15 31  1  0
 16 32  1  0
 17 33  1  0
 18 34  1  0
 19 35  1  0
M  END
