
     RDKit          3D

 33 35  0  0  0  0  0  0  0  0999 V2000
    5.7567   -0.5349    1.3949 C   0  0  0  0  0  0  0  0  0  0  0  0
    5.0726    0.6201    0.9260 O   0  0  0  0  0  0  0  0  0  0  0  0
    3.7096    0.5322    0.7831 C   0  0  0  0  0  0  0  0  0  0  0  0
    2.9531   -0.6048    1.0801 C   0  0  0  0  0  0  0  0  0  0  0  0
    1.5651   -0.5997    0.9032 C   0  0  0  0  0  0  0  0  0  0  0  0
    0.8995    0.5412    0.4313 C   0  0  0  0  0  0  0  0  0  0  0  0
    1.6638    1.6782    0.1258 C   0  0  0  0  0  0  0  0  0  0  0  0
    3.0550    1.6811    0.3012 C   0  0  0  0  0  0  0  0  0  0  0  0
    3.9477    3.1792   -0.1073 S   0  0  0  0  0  0  0  0  0  0  0  0
   -0.6035    0.5510    0.2188 C   0  0  0  0  0  0  0  0  0  0  0  0
   -1.2242   -0.1667    1.2845 O   0  0  0  0  0  0  0  0  0  0  0  0
   -2.6197    0.1012    1.3455 C   0  0  0  0  0  0  0  0  0  0  0  0
   -3.3695   -0.3649    0.1247 C   0  0  0  0  0  0  0  0  0  0  0  0
   -2.7545   -0.4932   -1.1297 C   0  0  0  0  0  0  0  0  0  0  0  0
   -1.0230   -0.1640   -1.3989 S   0  0  0  0  0  0  0  0  0  0  0  0
   -3.5127   -0.9093   -2.2332 C   0  0  0  0  0  0  0  0  0  0  0  0
   -4.8747   -1.1814   -2.1014 C   0  0  0  0  0  0  0  0  0  0  0  0
   -5.4922   -1.0394   -0.8637 C   0  0  0  0  0  0  0  0  0  0  0  0
   -4.7462   -0.6304    0.2414 C   0  0  0  0  0  0  0  0  0  0  0  0
    5.4316   -0.8031    2.4055 H   0  0  0  0  0  0  0  0  0  0  0  0
    5.6360   -1.3742    0.7022 H   0  0  0  0  0  0  0  0  0  0  0  0
    6.8232   -0.2944    1.4422 H   0  0  0  0  0  0  0  0  0  0  0  0
    3.4078   -1.5173    1.4508 H   0  0  0  0  0  0  0  0  0  0  0  0
    0.9970   -1.4995    1.1370 H   0  0  0  0  0  0  0  0  0  0  0  0
    1.1720    2.5709   -0.2569 H   0  0  0  0  0  0  0  0  0  0  0  0
    5.1577    2.6855    0.2015 H   0  0  0  0  0  0  0  0  0  0  0  0
   -0.9467    1.5937    0.2455 H   0  0  0  0  0  0  0  0  0  0  0  0
   -2.7909    1.1720    1.5098 H   0  0  0  0  0  0  0  0  0  0  0  0
   -2.9952   -0.4313    2.2265 H   0  0  0  0  0  0  0  0  0  0  0  0
   -3.0454   -1.0239   -3.2093 H   0  0  0  0  0  0  0  0  0  0  0  0
   -5.4501   -1.5027   -2.9657 H   0  0  0  0  0  0  0  0  0  0  0  0
   -6.5539   -1.2479   -0.7580 H   0  0  0  0  0  0  0  0  0  0  0  0
   -5.2459   -0.5234    1.2025 H   0  0  0  0  0  0  0  0  0  0  0  0
  1  2  1  0
  2  3  1  0
  3  4  2  0
  4  5  1  0
  5  6  2  0
  6  7  1  0
  7  8  2  0
  8  9  1  0
  6 10  1  0
 10 11  1  0
 11 12  1  0
 12 13  1  0
 13 14  2  0
 14 15  1  0
 14 16  1  0
 16 17  2  0
 17 18  1  0
 18 19  2  0
  8  3  1  0
 15 10  1  0
 19 13  1  0
  1 20  1  0
  1 21  1  0
  1 22  1  0
  4 23  1  0
  5 24  1  0
  7 25  1  0
  9 26  1  0
 10 27  1  0
 12 28  1  0
 12 29  1  0
 16 30  1  0
 17 31  1  0
 18 32  1  0
 19 33  1  0
M  END
