
     RDKit          3D

 35 37  0  0  0  0  0  0  0  0999 V2000
    5.4213   -2.1836    0.3686 C   0  0  0  0  0  0  0  0  0  0  0  0
    5.0298   -0.8584    0.0282 O   0  0  0  0  0  0  0  0  0  0  0  0
    3.6825   -0.6105   -0.0181 C   0  0  0  0  0  0  0  0  0  0  0  0
    2.6651   -1.5318    0.2190 C   0  0  0  0  0  0  0  0  0  0  0  0
    1.3238   -1.1337    0.1339 C   0  0  0  0  0  0  0  0  0  0  0  0
    0.9783    0.1917   -0.1826 C   0  0  0  0  0  0  0  0  0  0  0  0
    2.0064    1.1120   -0.4260 C   0  0  0  0  0  0  0  0  0  0  0  0
    3.3335    0.7049   -0.3404 C   0  0  0  0  0  0  0  0  0  0  0  0
    4.3073    1.6352   -0.5852 O   0  0  0  0  0  0  0  0  0  0  0  0
   -0.4709    0.6312   -0.3069 C   0  0  0  0  0  0  0  0  0  0  0  0
   -1.2251   -0.0175    0.7295 O   0  0  0  0  0  0  0  0  0  0  0  0
   -2.5506    0.3073    0.7898 C   0  0  0  0  0  0  0  0  0  0  0  0
   -3.1729    0.0700    2.0161 C   0  0  0  0  0  0  0  0  0  0  0  0
   -4.5313    0.3514    2.1867 C   0  0  0  0  0  0  0  0  0  0  0  0
   -5.2807    0.8614    1.1262 C   0  0  0  0  0  0  0  0  0  0  0  0
   -4.6734    1.0854   -0.1076 C   0  0  0  0  0  0  0  0  0  0  0  0
   -3.3124    0.8049   -0.2621 C   0  0  0  0  0  0  0  0  0  0  0  0
   -2.5773    1.0288   -1.8391 S   0  0  0  0  0  6  0  0  0  0  0  0
   -2.3635    2.4532   -2.0059 O   0  0  0  0  0  0  0  0  0  0  0  0
   -3.3561    0.2652   -2.7948 O   0  0  0  0  0  0  0  0  0  0  0  0
   -1.0044    0.2502   -1.6700 C   0  0  0  0  0  0  0  0  0  0  0  0
    5.0774   -2.4511    1.3732 H   0  0  0  0  0  0  0  0  0  0  0  0
    6.5150   -2.2182    0.3709 H   0  0  0  0  0  0  0  0  0  0  0  0
    5.0668   -2.9031   -0.3768 H   0  0  0  0  0  0  0  0  0  0  0  0
    2.8741   -2.5658    0.4722 H   0  0  0  0  0  0  0  0  0  0  0  0
    0.5459   -1.8718    0.3247 H   0  0  0  0  0  0  0  0  0  0  0  0
    1.7883    2.1462   -0.6817 H   0  0  0  0  0  0  0  0  0  0  0  0
    5.1499    1.1540   -0.4695 H   0  0  0  0  0  0  0  0  0  0  0  0
   -0.5150    1.7148   -0.1282 H   0  0  0  0  0  0  0  0  0  0  0  0
   -2.5981   -0.3299    2.8485 H   0  0  0  0  0  0  0  0  0  0  0  0
   -5.0054    0.1700    3.1487 H   0  0  0  0  0  0  0  0  0  0  0  0
   -6.3385    1.0761    1.2599 H   0  0  0  0  0  0  0  0  0  0  0  0
   -5.2578    1.4674   -0.9422 H   0  0  0  0  0  0  0  0  0  0  0  0
   -0.3731    0.6003   -2.4925 H   0  0  0  0  0  0  0  0  0  0  0  0
   -1.1590   -0.8301   -1.7664 H   0  0  0  0  0  0  0  0  0  0  0  0
  1  2  1  0
  2  3  1  0
  3  4  2  0
  4  5  1  0
  5  6  2  0
  6  7  1  0
  7  8  2  0
  8  9  1  0
  6 10  1  0
 10 11  1  0
 11 12  1  0
 12 13  2  0
 13 14  1  0
 14 15  2  0
 15 16  1  0
 16 17  2  0
 17 18  1  0
 18 19  2  0
 18 20  2  0
 18 21  1  0
  8  3  1  0
 21 10  1  0
 17 12  1  0
  1 22  1  0
  1 23  1  0
  1 24  1  0
  4 25  1  0
  5 26  1  0
  7 27  1  0
  9 28  1  0
 10 29  1  0
 13 30  1  0
 14 31  1  0
 15 32  1  0
 16 33  1  0
 21 34  1  0
 21 35  1  0
M  END
