
     RDKit          3D

 36 39  0  0  0  0  0  0  0  0999 V2000
    4.6852    2.3652   -0.3870 O   0  0  0  0  0  0  0  0  0  0  0  0
    3.5760    1.6199   -0.1017 C   0  0  0  0  0  0  0  0  0  0  0  0
    3.4642    0.3466   -0.6398 C   0  0  0  0  0  0  0  0  0  0  0  0
    2.3218   -0.3786   -0.3375 C   0  0  0  0  0  0  0  0  0  0  0  0
    1.9897   -1.7656   -0.7942 C   0  0  0  0  0  0  0  0  0  0  0  0
    0.4730   -1.8331   -0.5148 C   0  0  0  0  0  0  0  0  0  0  0  0
    0.2210   -0.8899    0.6957 C   0  0  0  0  0  0  0  0  0  0  0  0
    1.3125    0.1407    0.4943 C   0  0  0  0  0  0  0  0  0  0  0  0
    1.4380    1.4138    1.0395 C   0  0  0  0  0  0  0  0  0  0  0  0
    2.5781    2.1504    0.7248 C   0  0  0  0  0  0  0  0  0  0  0  0
    2.7726    3.4156    1.2111 O   0  0  0  0  0  0  0  0  0  0  0  0
   -1.1988   -0.3840    0.7267 C   0  0  0  0  0  0  0  0  0  0  0  0
   -1.6903    0.2758    1.8716 C   0  0  0  0  0  0  0  0  0  0  0  0
   -3.0148    0.7186    1.9379 C   0  0  0  0  0  0  0  0  0  0  0  0
   -3.8616    0.4839    0.8676 C   0  0  0  0  0  0  0  0  0  0  0  0
   -3.4019   -0.1881   -0.2571 C   0  0  0  0  0  0  0  0  0  0  0  0
   -2.0768   -0.6188   -0.3377 C   0  0  0  0  0  0  0  0  0  0  0  0
   -1.7430   -1.3249   -1.4639 O   0  0  0  0  0  0  0  0  0  0  0  0
   -0.3354   -1.3579   -1.7320 C   0  0  0  0  0  0  0  0  0  0  0  0
   -4.2831   -0.4213   -1.2811 O   0  0  0  0  0  0  0  0  0  0  0  0
   -5.1574    0.9055    0.9328 O   0  0  0  0  0  0  0  0  0  0  0  0
    0.1157   -3.1846   -0.1918 O   0  0  0  0  0  0  0  0  0  0  0  0
    4.5460    3.2037    0.0970 H   0  0  0  0  0  0  0  0  0  0  0  0
    4.2469   -0.0559   -1.2733 H   0  0  0  0  0  0  0  0  0  0  0  0
    2.5439   -2.5025   -0.2021 H   0  0  0  0  0  0  0  0  0  0  0  0
    2.2199   -1.9157   -1.8539 H   0  0  0  0  0  0  0  0  0  0  0  0
    0.4188   -1.4386    1.6271 H   0  0  0  0  0  0  0  0  0  0  0  0
    0.6743    1.8235    1.6885 H   0  0  0  0  0  0  0  0  0  0  0  0
    1.9941    3.6598    1.7407 H   0  0  0  0  0  0  0  0  0  0  0  0
   -1.0443    0.4349    2.7332 H   0  0  0  0  0  0  0  0  0  0  0  0
   -3.3849    1.2286    2.8225 H   0  0  0  0  0  0  0  0  0  0  0  0
   -0.2016   -2.0627   -2.5607 H   0  0  0  0  0  0  0  0  0  0  0  0
   -0.0238   -0.3690   -2.0916 H   0  0  0  0  0  0  0  0  0  0  0  0
   -3.7657   -0.9072   -1.9538 H   0  0  0  0  0  0  0  0  0  0  0  0
   -5.5519    0.6221    0.0833 H   0  0  0  0  0  0  0  0  0  0  0  0
   -0.8564   -3.2102   -0.1075 H   0  0  0  0  0  0  0  0  0  0  0  0
  1  2  1  0
  2  3  2  0
  3  4  1  0
  4  5  1  0
  5  6  1  0
  6  7  1  0
  7  8  1  0
  8  9  1  0
  9 10  2  0
 10 11  1  0
  7 12  1  0
 12 13  2  0
 13 14  1  0
 14 15  2  0
 15 16  1  0
 16 17  2  0
 17 18  1  0
 18 19  1  0
 16 20  1  0
 15 21  1  0
  6 22  1  0
 10  2  1  0
 17 12  1  0
  8  4  2  0
 19  6  1  0
  1 23  1  0
  3 24  1  0
  5 25  1  0
  5 26  1  0
  7 27  1  0
  9 28  1  0
 11 29  1  0
 13 30  1  0
 14 31  1  0
 19 32  1  0
 19 33  1  0
 20 34  1  0
 21 35  1  0
 22 36  1  0
M  END
