
     RDKit          3D

 37 40  0  0  0  0  0  0  0  0999 V2000
    5.3065    0.7179   -0.3367 C   0  0  0  0  0  0  0  0  0  0  0  0
    4.2026    1.5836   -0.5754 O   0  0  0  0  0  0  0  0  0  0  0  0
    2.9638    1.1074   -0.2261 C   0  0  0  0  0  0  0  0  0  0  0  0
    2.6919   -0.1393    0.3360 C   0  0  0  0  0  0  0  0  0  0  0  0
    1.3689   -0.4606    0.6236 C   0  0  0  0  0  0  0  0  0  0  0  0
    0.8678   -1.7294    1.2428 C   0  0  0  0  0  0  0  0  0  0  0  0
   -0.6413   -1.6648    0.9266 C   0  0  0  0  0  0  0  0  0  0  0  0
   -1.0000   -0.1537    0.8464 C   0  0  0  0  0  0  0  0  0  0  0  0
    0.3138    0.4321    0.3752 C   0  0  0  0  0  0  0  0  0  0  0  0
    0.5779    1.6771   -0.1729 C   0  0  0  0  0  0  0  0  0  0  0  0
    1.9002    1.9957   -0.4720 C   0  0  0  0  0  0  0  0  0  0  0  0
    2.1538    3.2273   -1.0177 O   0  0  0  0  0  0  0  0  0  0  0  0
   -2.2132    0.0903   -0.0157 C   0  0  0  0  0  0  0  0  0  0  0  0
   -2.8261    1.3549   -0.0336 C   0  0  0  0  0  0  0  0  0  0  0  0
   -3.9776    1.5830   -0.7894 C   0  0  0  0  0  0  0  0  0  0  0  0
   -4.5462    0.5449   -1.5213 C   0  0  0  0  0  0  0  0  0  0  0  0
   -3.9643   -0.7207   -1.4929 C   0  0  0  0  0  0  0  0  0  0  0  0
   -2.8026   -0.9441   -0.7515 C   0  0  0  0  0  0  0  0  0  0  0  0
   -2.3449   -2.2340   -0.7452 O   0  0  0  0  0  0  0  0  0  0  0  0
   -0.9589   -2.3527   -0.4085 C   0  0  0  0  0  0  0  0  0  0  0  0
   -1.3679   -2.3062    1.9859 O   0  0  0  0  0  0  0  0  0  0  0  0
    5.4144    0.5015    0.7313 H   0  0  0  0  0  0  0  0  0  0  0  0
    6.2132    1.2353   -0.6647 H   0  0  0  0  0  0  0  0  0  0  0  0
    5.2189   -0.2037   -0.9215 H   0  0  0  0  0  0  0  0  0  0  0  0
    3.4702   -0.8602    0.5560 H   0  0  0  0  0  0  0  0  0  0  0  0
    1.3426   -2.6137    0.8055 H   0  0  0  0  0  0  0  0  0  0  0  0
    1.0560   -1.7227    2.3223 H   0  0  0  0  0  0  0  0  0  0  0  0
   -1.2102    0.2196    1.8585 H   0  0  0  0  0  0  0  0  0  0  0  0
   -0.2030    2.4009   -0.3725 H   0  0  0  0  0  0  0  0  0  0  0  0
    3.1218    3.2480   -1.1476 H   0  0  0  0  0  0  0  0  0  0  0  0
   -2.4155    2.1728    0.5554 H   0  0  0  0  0  0  0  0  0  0  0  0
   -4.4354    2.5691   -0.7977 H   0  0  0  0  0  0  0  0  0  0  0  0
   -5.4466    0.7169   -2.1047 H   0  0  0  0  0  0  0  0  0  0  0  0
   -4.4164   -1.5372   -2.0497 H   0  0  0  0  0  0  0  0  0  0  0  0
   -0.3563   -1.9688   -1.2416 H   0  0  0  0  0  0  0  0  0  0  0  0
   -0.7567   -3.4269   -0.3277 H   0  0  0  0  0  0  0  0  0  0  0  0
   -2.3012   -2.3395    1.6987 H   0  0  0  0  0  0  0  0  0  0  0  0
  1  2  1  0
  2  3  1  0
  3  4  2  0
  4  5  1  0
  5  6  1  0
  6  7  1  0
  7  8  1  0
  8  9  1  0
  9 10  1  0
 10 11  2  0
 11 12  1  0
  8 13  1  0
 13 14  2  0
 14 15  1  0
 15 16  2  0
 16 17  1  0
 17 18  2  0
 18 19  1  0
 19 20  1  0
  7 21  1  0
 11  3  1  0
 18 13  1  0
  9  5  2  0
 20  7  1  0
  1 22  1  0
  1 23  1  0
  1 24  1  0
  4 25  1  0
  6 26  1  0
  6 27  1  0
  8 28  1  0
 10 29  1  0
 12 30  1  0
 14 31  1  0
 15 32  1  0
 16 33  1  0
 17 34  1  0
 20 35  1  0
 20 36  1  0
 21 37  1  0
M  END
