
     RDKit          3D

 37 40  0  0  0  0  0  0  0  0999 V2000
    3.2119    2.6031    1.2247 C   0  0  0  0  0  0  0  0  0  0  0  0
    3.7226    1.3443    0.8008 O   0  0  0  0  0  0  0  0  0  0  0  0
    2.8234    0.4774    0.2304 C   0  0  0  0  0  0  0  0  0  0  0  0
    1.4757    0.7449   -0.0276 C   0  0  0  0  0  0  0  0  0  0  0  0
    0.6909   -0.2505   -0.6050 C   0  0  0  0  0  0  0  0  0  0  0  0
    1.2510   -1.4954   -0.9344 C   0  0  0  0  0  0  0  0  0  0  0  0
    2.5869   -1.7730   -0.7024 C   0  0  0  0  0  0  0  0  0  0  0  0
    3.3581   -0.7779   -0.1154 C   0  0  0  0  0  0  0  0  0  0  0  0
    4.6795   -1.0473    0.1255 O   0  0  0  0  0  0  0  0  0  0  0  0
    0.2365   -2.4022   -1.5586 C   0  0  0  0  0  0  0  0  0  0  0  0
   -1.0867   -1.7204   -1.1517 C   0  0  0  0  0  0  0  0  0  0  0  0
   -0.7641   -0.2045   -1.0261 C   0  0  0  0  0  0  0  0  0  0  0  0
   -1.7255    0.4994   -0.1021 C   0  0  0  0  0  0  0  0  0  0  0  0
   -1.7565    1.9037   -0.0492 C   0  0  0  0  0  0  0  0  0  0  0  0
   -2.6709    2.5702    0.7686 C   0  0  0  0  0  0  0  0  0  0  0  0
   -3.5819    1.8431    1.5290 C   0  0  0  0  0  0  0  0  0  0  0  0
   -3.5811    0.4512    1.4649 C   0  0  0  0  0  0  0  0  0  0  0  0
   -2.6562   -0.2159    0.6596 C   0  0  0  0  0  0  0  0  0  0  0  0
   -2.7831   -1.5777    0.6191 O   0  0  0  0  0  0  0  0  0  0  0  0
   -1.6004   -2.2611    0.1907 C   0  0  0  0  0  0  0  0  0  0  0  0
   -2.0674   -1.9487   -2.1748 O   0  0  0  0  0  0  0  0  0  0  0  0
    2.8492    3.1875    0.3727 H   0  0  0  0  0  0  0  0  0  0  0  0
    4.0350    3.1596    1.6833 H   0  0  0  0  0  0  0  0  0  0  0  0
    2.4311    2.4789    1.9823 H   0  0  0  0  0  0  0  0  0  0  0  0
    1.0357    1.7035    0.2123 H   0  0  0  0  0  0  0  0  0  0  0  0
    3.0257   -2.7297   -0.9636 H   0  0  0  0  0  0  0  0  0  0  0  0
    5.0310   -0.2301    0.5292 H   0  0  0  0  0  0  0  0  0  0  0  0
    0.3642   -2.4218   -2.6467 H   0  0  0  0  0  0  0  0  0  0  0  0
    0.3076   -3.4248   -1.1742 H   0  0  0  0  0  0  0  0  0  0  0  0
   -0.8298    0.2606   -2.0198 H   0  0  0  0  0  0  0  0  0  0  0  0
   -1.0764    2.4911   -0.6627 H   0  0  0  0  0  0  0  0  0  0  0  0
   -2.6812    3.6568    0.8012 H   0  0  0  0  0  0  0  0  0  0  0  0
   -4.3016    2.3577    2.1599 H   0  0  0  0  0  0  0  0  0  0  0  0
   -4.3057   -0.1179    2.0417 H   0  0  0  0  0  0  0  0  0  0  0  0
   -0.8505   -2.2052    0.9899 H   0  0  0  0  0  0  0  0  0  0  0  0
   -1.8813   -3.3149    0.0805 H   0  0  0  0  0  0  0  0  0  0  0  0
   -2.9157   -1.6140   -1.8246 H   0  0  0  0  0  0  0  0  0  0  0  0
  1  2  1  0
  2  3  1  0
  3  4  2  0
  4  5  1  0
  5  6  2  0
  6  7  1  0
  7  8  2  0
  8  9  1  0
  6 10  1  0
 10 11  1  0
 11 12  1  0
 12 13  1  0
 13 14  2  0
 14 15  1  0
 15 16  2  0
 16 17  1  0
 17 18  2  0
 18 19  1  0
 19 20  1  0
 11 21  1  0
  8  3  1  0
 20 11  1  0
 12  5  1  0
 18 13  1  0
  1 22  1  0
  1 23  1  0
  1 24  1  0
  4 25  1  0
  7 26  1  0
  9 27  1  0
 10 28  1  0
 10 29  1  0
 12 30  1  0
 14 31  1  0
 15 32  1  0
 16 33  1  0
 17 34  1  0
 20 35  1  0
 20 36  1  0
 21 37  1  0
M  END
