
     RDKit          3D

 45 46  0  0  0  0  0  0  0  0999 V2000
   -4.6827   -1.4367   -1.4385 O   0  0  0  0  0  0  0  0  0  0  0  0
   -4.0370   -2.3836   -0.5903 C   0  0  0  0  0  0  0  0  0  0  0  0
   -3.0036   -1.6882    0.3023 C   0  0  0  0  0  0  0  0  0  0  0  0
   -2.0107   -1.1147   -0.5603 O   0  0  0  0  0  0  0  0  0  0  0  0
   -0.9145   -0.5464    0.1664 C   0  0  0  0  0  0  0  0  0  0  0  0
   -0.0263   -0.0104   -0.8194 O   0  0  0  0  0  0  0  0  0  0  0  0
    1.3120   -0.4843   -0.6777 C   0  0  0  0  0  0  0  0  0  0  0  0
    1.9553    0.1111    0.4486 O   0  0  0  0  0  0  0  0  0  0  0  0
    2.6499    1.3264    0.1260 C   0  0  0  0  0  0  0  0  0  0  0  0
    3.0657    2.0135    1.4327 C   0  0  0  0  0  0  0  0  0  0  0  0
    1.9287    2.5553    2.1067 O   0  0  0  0  0  0  0  0  0  0  0  0
    3.8761    0.9922   -0.7391 C   0  0  0  0  0  0  0  0  0  0  0  0
    3.5498   -0.1020   -1.7795 C   0  0  0  0  0  0  0  0  0  0  0  0
    2.0466   -0.2401   -2.0187 C   0  0  0  0  0  0  0  0  0  0  0  0
    1.5879    0.9586   -2.6782 O   0  0  0  0  0  0  0  0  0  0  0  0
    4.2190    0.1983   -3.0153 O   0  0  0  0  0  0  0  0  0  0  0  0
    4.3750    2.1748   -1.3725 O   0  0  0  0  0  0  0  0  0  0  0  0
   -1.3907    0.5875    1.1043 C   0  0  0  0  0  0  0  0  0  0  0  0
   -2.5527    0.1167    1.9813 C   0  0  0  0  0  0  0  0  0  0  0  0
   -3.6394   -0.5869    1.1669 C   0  0  0  0  0  0  0  0  0  0  0  0
   -4.5890   -1.1372    2.0858 O   0  0  0  0  0  0  0  0  0  0  0  0
   -2.0323   -0.7931    2.9749 O   0  0  0  0  0  0  0  0  0  0  0  0
   -0.3304    1.0285    1.9711 O   0  0  0  0  0  0  0  0  0  0  0  0
   -3.9707   -1.0320   -1.9718 H   0  0  0  0  0  0  0  0  0  0  0  0
   -3.5533   -3.1244   -1.2360 H   0  0  0  0  0  0  0  0  0  0  0  0
   -4.8032   -2.8901    0.0036 H   0  0  0  0  0  0  0  0  0  0  0  0
   -2.5400   -2.4618    0.9283 H   0  0  0  0  0  0  0  0  0  0  0  0
   -0.4252   -1.3414    0.7449 H   0  0  0  0  0  0  0  0  0  0  0  0
    1.3105   -1.5669   -0.5001 H   0  0  0  0  0  0  0  0  0  0  0  0
    1.9627    2.0065   -0.3935 H   0  0  0  0  0  0  0  0  0  0  0  0
    3.5387    1.3025    2.1175 H   0  0  0  0  0  0  0  0  0  0  0  0
    3.7576    2.8398    1.2470 H   0  0  0  0  0  0  0  0  0  0  0  0
    1.1862    1.9206    1.9874 H   0  0  0  0  0  0  0  0  0  0  0  0
    4.6894    0.6133   -0.1078 H   0  0  0  0  0  0  0  0  0  0  0  0
    3.9367   -1.0620   -1.4169 H   0  0  0  0  0  0  0  0  0  0  0  0
    1.8254   -1.0492   -2.7226 H   0  0  0  0  0  0  0  0  0  0  0  0
    0.6506    1.0585   -2.4075 H   0  0  0  0  0  0  0  0  0  0  0  0
    3.5915    0.7795   -3.4995 H   0  0  0  0  0  0  0  0  0  0  0  0
    4.9175    1.8552   -2.1220 H   0  0  0  0  0  0  0  0  0  0  0  0
   -1.7045    1.4472    0.5013 H   0  0  0  0  0  0  0  0  0  0  0  0
   -2.9715    0.9574    2.5465 H   0  0  0  0  0  0  0  0  0  0  0  0
   -4.1391    0.1639    0.5436 H   0  0  0  0  0  0  0  0  0  0  0  0
   -5.4384   -1.2040    1.6071 H   0  0  0  0  0  0  0  0  0  0  0  0
   -2.8302   -1.1558    3.4163 H   0  0  0  0  0  0  0  0  0  0  0  0
   -0.3474    0.4040    2.7291 H   0  0  0  0  0  0  0  0  0  0  0  0
  1  2  1  0
  2  3  1  0
  3  4  1  0
  4  5  1  0
  5  6  1  0
  6  7  1  0
  7  8  1  0
  8  9  1  0
  9 10  1  0
 10 11  1  0
  9 12  1  0
 12 13  1  0
 13 14  1  0
 14 15  1  0
 13 16  1  0
 12 17  1  0
  5 18  1  0
 18 19  1  0
 19 20  1  0
 20 21  1  0
 19 22  1  0
 18 23  1  0
 20  3  1  0
 14  7  1  0
  1 24  1  0
  2 25  1  0
  2 26  1  0
  3 27  1  0
  5 28  1  0
  7 29  1  0
  9 30  1  0
 10 31  1  0
 10 32  1  0
 11 33  1  0
 12 34  1  0
 13 35  1  0
 14 36  1  0
 15 37  1  0
 16 38  1  0
 17 39  1  0
 18 40  1  0
 19 41  1  0
 20 42  1  0
 21 43  1  0
 22 44  1  0
 23 45  1  0
M  END
