
     RDKit          3D

 45 48  0  0  0  0  0  0  0  0999 V2000
   -5.8824   -0.6099    0.8621 C   0  0  0  0  0  0  0  0  0  0  0  0
   -4.6860   -0.5182    1.6215 O   0  0  0  0  0  0  0  0  0  0  0  0
   -3.4936   -0.6385    0.9489 C   0  0  0  0  0  0  0  0  0  0  0  0
   -3.3853   -0.8260   -0.4332 C   0  0  0  0  0  0  0  0  0  0  0  0
   -2.1211   -0.9250   -0.9967 C   0  0  0  0  0  0  0  0  0  0  0  0
   -1.7957   -1.1371   -2.4431 C   0  0  0  0  0  0  0  0  0  0  0  0
   -0.3042   -0.7470   -2.4916 C   0  0  0  0  0  0  0  0  0  0  0  0
    0.2675   -1.0654   -1.0814 C   0  0  0  0  0  0  0  0  0  0  0  0
   -0.9603   -0.8579   -0.2181 C   0  0  0  0  0  0  0  0  0  0  0  0
   -1.0566   -0.6830    1.1565 C   0  0  0  0  0  0  0  0  0  0  0  0
   -2.3240   -0.5593    1.7460 C   0  0  0  0  0  0  0  0  0  0  0  0
   -2.5310   -0.3783    3.0934 O   0  0  0  0  0  0  0  0  0  0  0  0
   -1.3948   -0.1180    3.9042 C   0  0  0  0  0  0  0  0  0  0  0  0
    1.4833   -0.2304   -0.7620 C   0  0  0  0  0  0  0  0  0  0  0  0
    2.2738   -0.5360    0.3610 C   0  0  0  0  0  0  0  0  0  0  0  0
    3.4304    0.1948    0.6590 C   0  0  0  0  0  0  0  0  0  0  0  0
    3.8308    1.2335   -0.1765 C   0  0  0  0  0  0  0  0  0  0  0  0
    3.0626    1.5212   -1.3117 C   0  0  0  0  0  0  0  0  0  0  0  0
    1.8973    0.8058   -1.6071 C   0  0  0  0  0  0  0  0  0  0  0  0
    1.2527    1.1158   -2.7760 O   0  0  0  0  0  0  0  0  0  0  0  0
   -0.1271    0.7451   -2.8007 C   0  0  0  0  0  0  0  0  0  0  0  0
    3.4701    2.5290   -2.1520 O   0  0  0  0  0  0  0  0  0  0  0  0
    4.9406    2.0225   -0.0106 O   0  0  0  0  0  0  0  0  0  0  0  0
    5.7387    1.7689    1.1399 C   0  0  0  0  0  0  0  0  0  0  0  0
    0.3547   -1.5340   -3.4953 O   0  0  0  0  0  0  0  0  0  0  0  0
   -5.9479    0.2004    0.1286 H   0  0  0  0  0  0  0  0  0  0  0  0
   -6.7253   -0.5019    1.5516 H   0  0  0  0  0  0  0  0  0  0  0  0
   -5.9712   -1.5893    0.3805 H   0  0  0  0  0  0  0  0  0  0  0  0
   -4.2536   -0.8950   -1.0776 H   0  0  0  0  0  0  0  0  0  0  0  0
   -2.4071   -0.5076   -3.0976 H   0  0  0  0  0  0  0  0  0  0  0  0
   -1.9491   -2.1874   -2.7154 H   0  0  0  0  0  0  0  0  0  0  0  0
    0.5524   -2.1262   -1.0403 H   0  0  0  0  0  0  0  0  0  0  0  0
   -0.1569   -0.6488    1.7554 H   0  0  0  0  0  0  0  0  0  0  0  0
   -0.7410   -0.9946    3.9563 H   0  0  0  0  0  0  0  0  0  0  0  0
   -0.8483    0.7641    3.5542 H   0  0  0  0  0  0  0  0  0  0  0  0
   -1.7486    0.0918    4.9183 H   0  0  0  0  0  0  0  0  0  0  0  0
    2.0006   -1.3669    1.0096 H   0  0  0  0  0  0  0  0  0  0  0  0
    3.9974   -0.0846    1.5408 H   0  0  0  0  0  0  0  0  0  0  0  0
   -0.4825    0.9574   -3.8155 H   0  0  0  0  0  0  0  0  0  0  0  0
   -0.6855    1.3958   -2.1158 H   0  0  0  0  0  0  0  0  0  0  0  0
    4.2879    2.8801   -1.7521 H   0  0  0  0  0  0  0  0  0  0  0  0
    6.1667    0.7616    1.1081 H   0  0  0  0  0  0  0  0  0  0  0  0
    6.5676    2.4832    1.1350 H   0  0  0  0  0  0  0  0  0  0  0  0
    5.1670    1.9283    2.0601 H   0  0  0  0  0  0  0  0  0  0  0  0
    1.2370   -1.1331   -3.6243 H   0  0  0  0  0  0  0  0  0  0  0  0
  1  2  1  0
  2  3  1  0
  3  4  2  0
  4  5  1  0
  5  6  1  0
  6  7  1  0
  7  8  1  0
  8  9  1  0
  9 10  1  0
 10 11  2  0
 11 12  1  0
 12 13  1  0
  8 14  1  0
 14 15  2  0
 15 16  1  0
 16 17  2  0
 17 18  1  0
 18 19  2  0
 19 20  1  0
 20 21  1  0
 18 22  1  0
 17 23  1  0
 23 24  1  0
  7 25  1  0
 11  3  1  0
 19 14  1  0
  9  5  2  0
 21  7  1  0
  1 26  1  0
  1 27  1  0
  1 28  1  0
  4 29  1  0
  6 30  1  0
  6 31  1  0
  8 32  1  0
 10 33  1  0
 13 34  1  0
 13 35  1  0
 13 36  1  0
 15 37  1  0
 16 38  1  0
 21 39  1  0
 21 40  1  0
 22 41  1  0
 24 42  1  0
 24 43  1  0
 24 44  1  0
 25 45  1  0
M  END
