
     RDKit          3D

 45 48  0  0  0  0  0  0  0  0999 V2000
   -4.0975   -0.1782   -2.7200 C   0  0  0  0  0  0  0  0  0  0  0  0
   -4.1722    0.4947   -1.4717 O   0  0  0  0  0  0  0  0  0  0  0  0
   -3.1181    0.3432   -0.6023 C   0  0  0  0  0  0  0  0  0  0  0  0
   -2.0607   -0.5560   -0.7998 C   0  0  0  0  0  0  0  0  0  0  0  0
   -1.0474   -0.6266    0.1479 C   0  0  0  0  0  0  0  0  0  0  0  0
   -1.0977    0.1664    1.2956 C   0  0  0  0  0  0  0  0  0  0  0  0
   -2.1307    1.0673    1.5093 C   0  0  0  0  0  0  0  0  0  0  0  0
   -3.1527    1.1594    0.5570 C   0  0  0  0  0  0  0  0  0  0  0  0
   -4.2309    2.0054    0.6609 O   0  0  0  0  0  0  0  0  0  0  0  0
   -4.2715    2.8872    1.7731 C   0  0  0  0  0  0  0  0  0  0  0  0
    0.0821   -0.0850    2.1842 C   0  0  0  0  0  0  0  0  0  0  0  0
    0.6000   -1.4385    1.6352 C   0  0  0  0  0  0  0  0  0  0  0  0
    0.1795   -1.5144    0.1393 C   0  0  0  0  0  0  0  0  0  0  0  0
    1.2738   -1.0637   -0.8062 C   0  0  0  0  0  0  0  0  0  0  0  0
    1.0710   -1.1490   -2.1965 C   0  0  0  0  0  0  0  0  0  0  0  0
    2.0530   -0.7278   -3.0900 C   0  0  0  0  0  0  0  0  0  0  0  0
    3.2396   -0.2102   -2.5958 C   0  0  0  0  0  0  0  0  0  0  0  0
    3.4776   -0.1023   -1.2213 C   0  0  0  0  0  0  0  0  0  0  0  0
    2.5068   -0.5774   -0.3257 C   0  0  0  0  0  0  0  0  0  0  0  0
    2.7944   -0.5577    1.0152 O   0  0  0  0  0  0  0  0  0  0  0  0
    2.1121   -1.5665    1.7573 C   0  0  0  0  0  0  0  0  0  0  0  0
    4.7081    0.4208   -0.9031 O   0  0  0  0  0  0  0  0  0  0  0  0
    4.7494    1.2241    0.2725 C   0  0  0  0  0  0  0  0  0  0  0  0
    4.1876    0.1997   -3.4948 O   0  0  0  0  0  0  0  0  0  0  0  0
   -0.0033   -2.5170    2.3778 O   0  0  0  0  0  0  0  0  0  0  0  0
   -3.2013    0.1140   -3.2773 H   0  0  0  0  0  0  0  0  0  0  0  0
   -4.1434   -1.2635   -2.5839 H   0  0  0  0  0  0  0  0  0  0  0  0
   -4.9683    0.1185   -3.3125 H   0  0  0  0  0  0  0  0  0  0  0  0
   -2.0194   -1.2025   -1.6672 H   0  0  0  0  0  0  0  0  0  0  0  0
   -2.1226    1.6715    2.4086 H   0  0  0  0  0  0  0  0  0  0  0  0
   -5.1712    3.5029    1.6792 H   0  0  0  0  0  0  0  0  0  0  0  0
   -3.4077    3.5602    1.7773 H   0  0  0  0  0  0  0  0  0  0  0  0
   -4.3464    2.3319    2.7138 H   0  0  0  0  0  0  0  0  0  0  0  0
    0.8006    0.7316    2.0605 H   0  0  0  0  0  0  0  0  0  0  0  0
   -0.2240   -0.1627    3.2323 H   0  0  0  0  0  0  0  0  0  0  0  0
   -0.1128   -2.5436   -0.1073 H   0  0  0  0  0  0  0  0  0  0  0  0
    0.1453   -1.5529   -2.5980 H   0  0  0  0  0  0  0  0  0  0  0  0
    1.8944   -0.7986   -4.1619 H   0  0  0  0  0  0  0  0  0  0  0  0
    2.4123   -1.4662    2.8073 H   0  0  0  0  0  0  0  0  0  0  0  0
    2.4603   -2.5607    1.4444 H   0  0  0  0  0  0  0  0  0  0  0  0
    3.8420    1.8244    0.4024 H   0  0  0  0  0  0  0  0  0  0  0  0
    4.9485    0.6045    1.1517 H   0  0  0  0  0  0  0  0  0  0  0  0
    5.5890    1.9184    0.1671 H   0  0  0  0  0  0  0  0  0  0  0  0
    4.9431    0.4896   -2.9466 H   0  0  0  0  0  0  0  0  0  0  0  0
   -0.9709   -2.4147    2.3086 H   0  0  0  0  0  0  0  0  0  0  0  0
  1  2  1  0
  2  3  1  0
  3  4  2  0
  4  5  1  0
  5  6  2  0
  6  7  1  0
  7  8  2  0
  8  9  1  0
  9 10  1  0
  6 11  1  0
 11 12  1  0
 12 13  1  0
 13 14  1  0
 14 15  2  0
 15 16  1  0
 16 17  2  0
 17 18  1  0
 18 19  2  0
 19 20  1  0
 20 21  1  0
 18 22  1  0
 22 23  1  0
 17 24  1  0
 12 25  1  0
  8  3  1  0
 21 12  1  0
 13  5  1  0
 19 14  1  0
  1 26  1  0
  1 27  1  0
  1 28  1  0
  4 29  1  0
  7 30  1  0
 10 31  1  0
 10 32  1  0
 10 33  1  0
 11 34  1  0
 11 35  1  0
 13 36  1  0
 15 37  1  0
 16 38  1  0
 21 39  1  0
 21 40  1  0
 23 41  1  0
 23 42  1  0
 23 43  1  0
 24 44  1  0
 25 45  1  0
M  END
