
     RDKit          3D

 48 51  0  0  0  0  0  0  0  0999 V2000
    4.8287   -2.0719    2.3969 C   0  0  0  0  0  0  0  0  0  0  0  0
    4.6269   -0.8477    1.7060 O   0  0  0  0  0  0  0  0  0  0  0  0
    3.5225   -0.7490    0.8937 C   0  0  0  0  0  0  0  0  0  0  0  0
    2.6266   -1.7979    0.6541 C   0  0  0  0  0  0  0  0  0  0  0  0
    1.5516   -1.5771   -0.1942 C   0  0  0  0  0  0  0  0  0  0  0  0
    0.4888   -2.5593   -0.5849 C   0  0  0  0  0  0  0  0  0  0  0  0
   -0.1240   -1.8698   -1.8304 C   0  0  0  0  0  0  0  0  0  0  0  0
    0.0894   -0.3380   -1.6493 C   0  0  0  0  0  0  0  0  0  0  0  0
    1.3350   -0.3321   -0.7877 C   0  0  0  0  0  0  0  0  0  0  0  0
    2.2236    0.7138   -0.5723 C   0  0  0  0  0  0  0  0  0  0  0  0
    3.3228    0.5113    0.2740 C   0  0  0  0  0  0  0  0  0  0  0  0
    4.2633    1.4724    0.5597 O   0  0  0  0  0  0  0  0  0  0  0  0
    4.0690    2.7693    0.0154 C   0  0  0  0  0  0  0  0  0  0  0  0
   -1.1053    0.3510   -1.0276 C   0  0  0  0  0  0  0  0  0  0  0  0
   -1.0960    1.7383   -0.8119 C   0  0  0  0  0  0  0  0  0  0  0  0
   -2.1833    2.3890   -0.2149 C   0  0  0  0  0  0  0  0  0  0  0  0
   -3.3097    1.6671    0.1795 C   0  0  0  0  0  0  0  0  0  0  0  0
   -3.3275    0.2810   -0.0361 C   0  0  0  0  0  0  0  0  0  0  0  0
   -2.2531   -0.3669   -0.6673 C   0  0  0  0  0  0  0  0  0  0  0  0
   -2.3730   -1.7183   -0.8771 O   0  0  0  0  0  0  0  0  0  0  0  0
   -1.6076   -2.1798   -1.9874 C   0  0  0  0  0  0  0  0  0  0  0  0
   -4.4499   -0.4453    0.2946 O   0  0  0  0  0  0  0  0  0  0  0  0
   -4.3296   -0.9325    1.6298 C   0  0  0  0  0  0  0  0  0  0  0  0
   -4.4196    2.2056    0.7759 O   0  0  0  0  0  0  0  0  0  0  0  0
   -4.4746    3.6198    0.8988 C   0  0  0  0  0  0  0  0  0  0  0  0
    0.5583   -2.3292   -3.0155 O   0  0  0  0  0  0  0  0  0  0  0  0
    3.9894   -2.2935    3.0645 H   0  0  0  0  0  0  0  0  0  0  0  0
    5.0069   -2.8947    1.6969 H   0  0  0  0  0  0  0  0  0  0  0  0
    5.7247   -1.9630    3.0154 H   0  0  0  0  0  0  0  0  0  0  0  0
    2.7477   -2.7763    1.1036 H   0  0  0  0  0  0  0  0  0  0  0  0
    0.9244   -3.5322   -0.8334 H   0  0  0  0  0  0  0  0  0  0  0  0
   -0.2215   -2.6629    0.2416 H   0  0  0  0  0  0  0  0  0  0  0  0
    0.3105    0.1208   -2.6218 H   0  0  0  0  0  0  0  0  0  0  0  0
    2.0536    1.6612   -1.0677 H   0  0  0  0  0  0  0  0  0  0  0  0
    3.1276    3.2081    0.3621 H   0  0  0  0  0  0  0  0  0  0  0  0
    4.1181    2.7487   -1.0783 H   0  0  0  0  0  0  0  0  0  0  0  0
    4.8835    3.4072    0.3719 H   0  0  0  0  0  0  0  0  0  0  0  0
   -0.2370    2.3355   -1.1078 H   0  0  0  0  0  0  0  0  0  0  0  0
   -2.1134    3.4620   -0.0697 H   0  0  0  0  0  0  0  0  0  0  0  0
   -1.7563   -3.2634   -2.0661 H   0  0  0  0  0  0  0  0  0  0  0  0
   -2.0104   -1.7582   -2.9188 H   0  0  0  0  0  0  0  0  0  0  0  0
   -3.4693   -1.6024    1.7348 H   0  0  0  0  0  0  0  0  0  0  0  0
   -5.2328   -1.5058    1.8591 H   0  0  0  0  0  0  0  0  0  0  0  0
   -4.2597   -0.1108    2.3510 H   0  0  0  0  0  0  0  0  0  0  0  0
   -4.4152    4.1061   -0.0806 H   0  0  0  0  0  0  0  0  0  0  0  0
   -5.4413    3.8798    1.3407 H   0  0  0  0  0  0  0  0  0  0  0  0
   -3.6925    3.9868    1.5714 H   0  0  0  0  0  0  0  0  0  0  0  0
    1.5100   -2.1568   -2.8907 H   0  0  0  0  0  0  0  0  0  0  0  0
  1  2  1  0
  2  3  1  0
  3  4  2  0
  4  5  1  0
  5  6  1  0
  6  7  1  0
  7  8  1  0
  8  9  1  0
  9 10  1  0
 10 11  2  0
 11 12  1  0
 12 13  1  0
  8 14  1  0
 14 15  2  0
 15 16  1  0
 16 17  2  0
 17 18  1  0
 18 19  2  0
 19 20  1  0
 20 21  1  0
 18 22  1  0
 22 23  1  0
 17 24  1  0
 24 25  1  0
  7 26  1  0
 11  3  1  0
 19 14  1  0
  9  5  2  0
 21  7  1  0
  1 27  1  0
  1 28  1  0
  1 29  1  0
  4 30  1  0
  6 31  1  0
  6 32  1  0
  8 33  1  0
 10 34  1  0
 13 35  1  0
 13 36  1  0
 13 37  1  0
 15 38  1  0
 16 39  1  0
 21 40  1  0
 21 41  1  0
 23 42  1  0
 23 43  1  0
 23 44  1  0
 25 45  1  0
 25 46  1  0
 25 47  1  0
 26 48  1  0
M  END
