
     RDKit          3D

 47 50  0  0  0  0  0  0  0  0999 V2000
    6.5098    0.2299   -0.7815 C   0  0  0  0  0  0  0  0  0  0  0  0
    5.6245    0.1487    0.3295 O   0  0  0  0  0  0  0  0  0  0  0  0
    4.2868    0.0497    0.0409 C   0  0  0  0  0  0  0  0  0  0  0  0
    3.7219    0.0039   -1.2275 C   0  0  0  0  0  0  0  0  0  0  0  0
    2.3325   -0.0869   -1.3686 C   0  0  0  0  0  0  0  0  0  0  0  0
    1.4773   -0.1229   -0.2502 C   0  0  0  0  0  0  0  0  0  0  0  0
    2.0493   -0.1259    1.0369 C   0  0  0  0  0  0  0  0  0  0  0  0
    3.4425   -0.0161    1.1571 C   0  0  0  0  0  0  0  0  0  0  0  0
    4.0031    0.0273    2.4106 O   0  0  0  0  0  0  0  0  0  0  0  0
    1.1987   -0.1981    2.2800 C   0  0  0  0  0  0  0  0  0  0  0  0
   -0.2015   -0.7440    2.0178 C   0  0  0  0  0  0  0  0  0  0  0  0
   -0.8439   -0.0015    0.8439 C   0  0  0  0  0  0  0  0  0  0  0  0
   -0.0298   -0.2387   -0.4472 C   0  0  0  0  0  0  0  0  0  0  0  0
   -0.5708    0.6611   -1.5840 C   0  0  0  0  0  0  0  0  0  0  0  0
   -2.0189    1.1238   -1.3877 C   0  0  0  0  0  0  0  0  0  0  0  0
   -2.9207    0.0734   -0.7165 C   0  0  0  0  0  0  0  0  0  0  0  0
   -2.3052   -0.4456    0.6195 C   0  0  0  0  0  0  0  0  0  0  0  0
   -3.2545    0.0415    1.7220 C   0  0  0  0  0  0  0  0  0  0  0  0
   -4.6086    0.0895    1.0378 C   0  0  0  0  0  0  0  0  0  0  0  0
   -4.2790    0.6989   -0.3160 C   0  0  0  0  0  0  0  0  0  0  0  0
   -3.1699   -1.1016   -1.6822 C   0  0  0  0  0  0  0  0  0  0  0  0
    6.4610   -0.6780   -1.3918 H   0  0  0  0  0  0  0  0  0  0  0  0
    6.3093    1.1232   -1.3821 H   0  0  0  0  0  0  0  0  0  0  0  0
    7.5285    0.3135   -0.3908 H   0  0  0  0  0  0  0  0  0  0  0  0
    4.3244    0.0363   -2.1285 H   0  0  0  0  0  0  0  0  0  0  0  0
    1.9206   -0.1311   -2.3750 H   0  0  0  0  0  0  0  0  0  0  0  0
    4.9640    0.1013    2.2512 H   0  0  0  0  0  0  0  0  0  0  0  0
    1.1254    0.8106    2.7053 H   0  0  0  0  0  0  0  0  0  0  0  0
    1.6763   -0.8410    3.0290 H   0  0  0  0  0  0  0  0  0  0  0  0
   -0.1478   -1.8183    1.7980 H   0  0  0  0  0  0  0  0  0  0  0  0
   -0.8011   -0.6335    2.9283 H   0  0  0  0  0  0  0  0  0  0  0  0
   -0.8257    1.0722    1.0827 H   0  0  0  0  0  0  0  0  0  0  0  0
   -0.1925   -1.2850   -0.7470 H   0  0  0  0  0  0  0  0  0  0  0  0
    0.0489    1.5598   -1.7003 H   0  0  0  0  0  0  0  0  0  0  0  0
   -0.4926    0.1169   -2.5342 H   0  0  0  0  0  0  0  0  0  0  0  0
   -2.4370    1.4341   -2.3536 H   0  0  0  0  0  0  0  0  0  0  0  0
   -1.9985    2.0319   -0.7696 H   0  0  0  0  0  0  0  0  0  0  0  0
   -2.3375   -1.5449    0.6217 H   0  0  0  0  0  0  0  0  0  0  0  0
   -3.2613   -0.6282    2.5874 H   0  0  0  0  0  0  0  0  0  0  0  0
   -2.9755    1.0434    2.0700 H   0  0  0  0  0  0  0  0  0  0  0  0
   -5.3345    0.6880    1.5956 H   0  0  0  0  0  0  0  0  0  0  0  0
   -5.0151   -0.9212    0.9170 H   0  0  0  0  0  0  0  0  0  0  0  0
   -4.1936    1.7870   -0.2040 H   0  0  0  0  0  0  0  0  0  0  0  0
   -5.0729    0.5110   -1.0465 H   0  0  0  0  0  0  0  0  0  0  0  0
   -3.6145   -0.7502   -2.6202 H   0  0  0  0  0  0  0  0  0  0  0  0
   -2.2440   -1.6293   -1.9309 H   0  0  0  0  0  0  0  0  0  0  0  0
   -3.8579   -1.8349   -1.2463 H   0  0  0  0  0  0  0  0  0  0  0  0
  1  2  1  0
  2  3  1  0
  3  4  2  0
  4  5  1  0
  5  6  2  0
  6  7  1  0
  7  8  2  0
  8  9  1  0
  7 10  1  0
 10 11  1  0
 11 12  1  0
 12 13  1  0
 13 14  1  0
 14 15  1  0
 15 16  1  0
 16 17  1  0
 17 18  1  0
 18 19  1  0
 19 20  1  0
 16 21  1  0
  8  3  1  0
 17 12  1  0
 13  6  1  0
 20 16  1  0
  1 22  1  0
  1 23  1  0
  1 24  1  0
  4 25  1  0
  5 26  1  0
  9 27  1  0
 10 28  1  0
 10 29  1  0
 11 30  1  0
 11 31  1  0
 12 32  1  0
 13 33  1  0
 14 34  1  0
 14 35  1  0
 15 36  1  0
 15 37  1  0
 17 38  1  0
 18 39  1  0
 18 40  1  0
 19 41  1  0
 19 42  1  0
 20 43  1  0
 20 44  1  0
 21 45  1  0
 21 46  1  0
 21 47  1  0
M  END
