
     RDKit          3D

 32 34  0  0  0  0  0  0  0  0999 V2000
   -5.9886   -0.9477    0.0708 C   0  0  0  0  0  0  0  0  0  0  0  0
   -5.3019   -0.0014   -0.7383 O   0  0  0  0  0  0  0  0  0  0  0  0
   -3.9465    0.0809   -0.5744 C   0  0  0  0  0  0  0  0  0  0  0  0
   -3.1801   -0.6671    0.3178 C   0  0  0  0  0  0  0  0  0  0  0  0
   -1.7941   -0.4806    0.3829 C   0  0  0  0  0  0  0  0  0  0  0  0
   -1.1500    0.4599   -0.4372 C   0  0  0  0  0  0  0  0  0  0  0  0
   -1.9303    1.2004   -1.3377 C   0  0  0  0  0  0  0  0  0  0  0  0
   -3.3140    1.0122   -1.4001 C   0  0  0  0  0  0  0  0  0  0  0  0
    0.3545    0.6569   -0.3861 C   0  0  0  0  0  0  0  0  0  0  0  0
    0.7918    0.5565    0.9688 O   0  0  0  0  0  0  0  0  0  0  0  0
    2.1039    1.0802    1.1301 C   0  0  0  0  0  0  0  0  0  0  0  0
    3.1505    0.3118    0.3659 C   0  0  0  0  0  0  0  0  0  0  0  0
    2.8469   -0.4217   -0.7908 C   0  0  0  0  0  0  0  0  0  0  0  0
    1.1949   -0.5566   -1.4479 S   0  0  0  0  0  0  0  0  0  0  0  0
    3.8701   -1.0973   -1.4707 C   0  0  0  0  0  0  0  0  0  0  0  0
    5.1888   -1.0350   -1.0195 C   0  0  0  0  0  0  0  0  0  0  0  0
    5.4973   -0.2953    0.1168 C   0  0  0  0  0  0  0  0  0  0  0  0
    4.4861    0.3767    0.8032 C   0  0  0  0  0  0  0  0  0  0  0  0
   -7.0520   -0.8940   -0.1817 H   0  0  0  0  0  0  0  0  0  0  0  0
   -5.8867   -0.7059    1.1340 H   0  0  0  0  0  0  0  0  0  0  0  0
   -5.6482   -1.9673   -0.1381 H   0  0  0  0  0  0  0  0  0  0  0  0
   -3.6238   -1.4054    0.9768 H   0  0  0  0  0  0  0  0  0  0  0  0
   -1.2110   -1.0779    1.0823 H   0  0  0  0  0  0  0  0  0  0  0  0
   -1.4686    1.9271   -2.0023 H   0  0  0  0  0  0  0  0  0  0  0  0
   -3.9050    1.5947   -2.1027 H   0  0  0  0  0  0  0  0  0  0  0  0
    0.5782    1.6661   -0.7567 H   0  0  0  0  0  0  0  0  0  0  0  0
    2.3254    1.0260    2.2018 H   0  0  0  0  0  0  0  0  0  0  0  0
    2.1253    2.1384    0.8424 H   0  0  0  0  0  0  0  0  0  0  0  0
    3.6460   -1.6797   -2.3623 H   0  0  0  0  0  0  0  0  0  0  0  0
    5.9718   -1.5637   -1.5568 H   0  0  0  0  0  0  0  0  0  0  0  0
    6.5241   -0.2426    0.4699 H   0  0  0  0  0  0  0  0  0  0  0  0
    4.7453    0.9515    1.6905 H   0  0  0  0  0  0  0  0  0  0  0  0
  1  2  1  0
  2  3  1  0
  3  4  2  0
  4  5  1  0
  5  6  2  0
  6  7  1  0
  7  8  2  0
  6  9  1  0
  9 10  1  0
 10 11  1  0
 11 12  1  0
 12 13  2  0
 13 14  1  0
 13 15  1  0
 15 16  2  0
 16 17  1  0
 17 18  2  0
  8  3  1  0
 14  9  1  0
 18 12  1  0
  1 19  1  0
  1 20  1  0
  1 21  1  0
  4 22  1  0
  5 23  1  0
  7 24  1  0
  8 25  1  0
  9 26  1  0
 11 27  1  0
 11 28  1  0
 15 29  1  0
 16 30  1  0
 17 31  1  0
 18 32  1  0
M  END
