
     RDKit          3D

 29 31  0  0  0  0  0  0  0  0999 V2000
   -4.5900    1.2255    1.6323 O   0  0  0  0  0  0  0  0  0  0  0  0
   -3.9247    0.4231    0.7527 C   0  0  0  0  0  0  0  0  0  0  0  0
   -4.6795   -0.3131   -0.1512 C   0  0  0  0  0  0  0  0  0  0  0  0
   -4.0386   -1.1407   -1.0705 C   0  0  0  0  0  0  0  0  0  0  0  0
   -2.6445   -1.2301   -1.0772 C   0  0  0  0  0  0  0  0  0  0  0  0
   -1.8732   -0.4956   -0.1585 C   0  0  0  0  0  0  0  0  0  0  0  0
   -2.5346    0.3430    0.7562 C   0  0  0  0  0  0  0  0  0  0  0  0
   -0.3584   -0.5899   -0.1868 C   0  0  0  0  0  0  0  0  0  0  0  0
    0.1340   -0.5491    1.1524 O   0  0  0  0  0  0  0  0  0  0  0  0
    1.4849   -0.9884    1.2207 C   0  0  0  0  0  0  0  0  0  0  0  0
    2.4392   -0.0965    0.4701 C   0  0  0  0  0  0  0  0  0  0  0  0
    2.0322    0.6899   -0.6181 C   0  0  0  0  0  0  0  0  0  0  0  0
    0.3460    0.7497   -1.1943 S   0  0  0  0  0  0  0  0  0  0  0  0
    2.9736    1.4821   -1.2904 C   0  0  0  0  0  0  0  0  0  0  0  0
    4.3129    1.4846   -0.8999 C   0  0  0  0  0  0  0  0  0  0  0  0
    4.7243    0.6937    0.1672 C   0  0  0  0  0  0  0  0  0  0  0  0
    3.7950   -0.0945    0.8458 C   0  0  0  0  0  0  0  0  0  0  0  0
   -3.9334    1.6803    2.1853 H   0  0  0  0  0  0  0  0  0  0  0  0
   -5.7630   -0.2383   -0.1420 H   0  0  0  0  0  0  0  0  0  0  0  0
   -4.6252   -1.7129   -1.7843 H   0  0  0  0  0  0  0  0  0  0  0  0
   -2.1627   -1.8750   -1.8092 H   0  0  0  0  0  0  0  0  0  0  0  0
   -1.9489    0.9254    1.4629 H   0  0  0  0  0  0  0  0  0  0  0  0
   -0.0848   -1.5536   -0.6365 H   0  0  0  0  0  0  0  0  0  0  0  0
    1.7521   -0.9919    2.2834 H   0  0  0  0  0  0  0  0  0  0  0  0
    1.5647   -2.0203    0.8574 H   0  0  0  0  0  0  0  0  0  0  0  0
    2.6687    2.1058   -2.1284 H   0  0  0  0  0  0  0  0  0  0  0  0
    5.0318    2.1035   -1.4305 H   0  0  0  0  0  0  0  0  0  0  0  0
    5.7677    0.6913    0.4725 H   0  0  0  0  0  0  0  0  0  0  0  0
    4.1345   -0.7081    1.6783 H   0  0  0  0  0  0  0  0  0  0  0  0
  1  2  1  0
  2  3  2  0
  3  4  1  0
  4  5  2  0
  5  6  1  0
  6  7  2  0
  6  8  1  0
  8  9  1  0
  9 10  1  0
 10 11  1  0
 11 12  2  0
 12 13  1  0
 12 14  1  0
 14 15  2  0
 15 16  1  0
 16 17  2  0
  7  2  1  0
 13  8  1  0
 17 11  1  0
  1 18  1  0
  3 19  1  0
  4 20  1  0
  5 21  1  0
  7 22  1  0
  8 23  1  0
 10 24  1  0
 10 25  1  0
 14 26  1  0
 15 27  1  0
 16 28  1  0
 17 29  1  0
M  END
