
     RDKit          3D

 43 45  0  0  0  0  0  0  0  0999 V2000
   -6.6819   -0.6344    1.0125 C   0  0  0  0  0  0  0  0  0  0  0  0
   -5.6754   -1.6374    1.5476 C   0  0  0  0  0  0  0  0  0  0  0  0
   -4.5730   -1.8265    0.6361 N   0  0  0  0  0  0  0  0  0  0  0  0
   -3.5096   -0.9663    0.5802 C   0  0  0  0  0  0  0  0  0  0  0  0
   -3.3265   -0.0409    1.3602 O   0  0  0  0  0  0  0  0  0  0  0  0
   -2.6950   -1.3280   -0.4777 O   0  0  0  0  0  0  0  0  0  0  0  0
   -1.6617   -0.4106   -0.6997 C   0  0  0  0  0  0  0  0  0  0  0  0
   -0.4148   -0.6733   -0.1271 C   0  0  0  0  0  0  0  0  0  0  0  0
    0.6541    0.2054   -0.3513 C   0  0  0  0  0  0  0  0  0  0  0  0
    0.4386    1.3182   -1.1834 C   0  0  0  0  0  0  0  0  0  0  0  0
   -0.8136    1.5618   -1.7659 C   0  0  0  0  0  0  0  0  0  0  0  0
   -1.8806    0.6959   -1.5295 C   0  0  0  0  0  0  0  0  0  0  0  0
   -3.1381    0.8195   -2.0567 O   0  0  0  0  0  0  0  0  0  0  0  0
   -3.4273    2.0274   -2.7478 C   0  0  0  0  0  0  0  0  0  0  0  0
    2.0110   -0.0720    0.2697 C   0  0  0  0  0  0  0  0  0  0  0  0
    2.6366    1.1662    0.6037 O   0  0  0  0  0  0  0  0  0  0  0  0
    3.7206    0.9722    1.5034 C   0  0  0  0  0  0  0  0  0  0  0  0
    4.8439    0.1583    0.9149 C   0  0  0  0  0  0  0  0  0  0  0  0
    4.6374   -0.7693   -0.1175 C   0  0  0  0  0  0  0  0  0  0  0  0
    3.0430   -1.0489   -0.8652 S   0  0  0  0  0  0  0  0  0  0  0  0
    5.7207   -1.5124   -0.6073 C   0  0  0  0  0  0  0  0  0  0  0  0
    6.9977   -1.3521   -0.0689 C   0  0  0  0  0  0  0  0  0  0  0  0
    7.2038   -0.4464    0.9659 C   0  0  0  0  0  0  0  0  0  0  0  0
    6.1340    0.3014    1.4573 C   0  0  0  0  0  0  0  0  0  0  0  0
   -7.0788   -0.9580    0.0445 H   0  0  0  0  0  0  0  0  0  0  0  0
   -7.5193   -0.5260    1.7085 H   0  0  0  0  0  0  0  0  0  0  0  0
   -6.2238    0.3501    0.8719 H   0  0  0  0  0  0  0  0  0  0  0  0
   -6.1520   -2.6123    1.6887 H   0  0  0  0  0  0  0  0  0  0  0  0
   -5.2885   -1.2992    2.5148 H   0  0  0  0  0  0  0  0  0  0  0  0
   -4.6604   -2.4651   -0.1421 H   0  0  0  0  0  0  0  0  0  0  0  0
   -0.2884   -1.5564    0.4930 H   0  0  0  0  0  0  0  0  0  0  0  0
    1.2576    2.0076   -1.3856 H   0  0  0  0  0  0  0  0  0  0  0  0
   -0.9128    2.4333   -2.4040 H   0  0  0  0  0  0  0  0  0  0  0  0
   -3.2685    2.9012   -2.1069 H   0  0  0  0  0  0  0  0  0  0  0  0
   -4.4854    2.0076   -3.0263 H   0  0  0  0  0  0  0  0  0  0  0  0
   -2.8425    2.1011   -3.6704 H   0  0  0  0  0  0  0  0  0  0  0  0
    1.8508   -0.6487    1.1903 H   0  0  0  0  0  0  0  0  0  0  0  0
    3.3625    0.5093    2.4310 H   0  0  0  0  0  0  0  0  0  0  0  0
    4.0915    1.9718    1.7559 H   0  0  0  0  0  0  0  0  0  0  0  0
    5.5763   -2.2263   -1.4159 H   0  0  0  0  0  0  0  0  0  0  0  0
    7.8281   -1.9351   -0.4584 H   0  0  0  0  0  0  0  0  0  0  0  0
    8.1971   -0.3206    1.3895 H   0  0  0  0  0  0  0  0  0  0  0  0
    6.3129    1.0054    2.2681 H   0  0  0  0  0  0  0  0  0  0  0  0
  1  2  1  0
  2  3  1  0
  3  4  1  0
  4  5  2  0
  4  6  1  0
  6  7  1  0
  7  8  2  0
  8  9  1  0
  9 10  2  0
 10 11  1  0
 11 12  2  0
 12 13  1  0
 13 14  1  0
  9 15  1  0
 15 16  1  0
 16 17  1  0
 17 18  1  0
 18 19  2  0
 19 20  1  0
 19 21  1  0
 21 22  2  0
 22 23  1  0
 23 24  2  0
 12  7  1  0
 20 15  1  0
 24 18  1  0
  1 25  1  0
  1 26  1  0
  1 27  1  0
  2 28  1  0
  2 29  1  0
  3 30  1  0
  8 31  1  0
 10 32  1  0
 11 33  1  0
 14 34  1  0
 14 35  1  0
 14 36  1  0
 15 37  1  0
 17 38  1  0
 17 39  1  0
 21 40  1  0
 22 41  1  0
 23 42  1  0
 24 43  1  0
M  END
