
     RDKit          3D

 47 50  0  0  0  0  0  0  0  0999 V2000
    2.1993   -4.1993    0.9566 C   0  0  0  0  0  0  0  0  0  0  0  0
    2.1330   -2.7915    1.1418 O   0  0  0  0  0  0  0  0  0  0  0  0
    0.9361   -2.1883    0.8630 C   0  0  0  0  0  0  0  0  0  0  0  0
   -0.2639   -2.8483    0.6021 C   0  0  0  0  0  0  0  0  0  0  0  0
   -1.4335   -2.1170    0.3498 C   0  0  0  0  0  0  0  0  0  0  0  0
   -1.4317   -0.7107    0.3510 C   0  0  0  0  0  0  0  0  0  0  0  0
   -0.2282   -0.0482    0.6295 C   0  0  0  0  0  0  0  0  0  0  0  0
    0.9331   -0.7883    0.8634 C   0  0  0  0  0  0  0  0  0  0  0  0
    2.1100   -0.0937    1.1684 O   0  0  0  0  0  0  0  0  0  0  0  0
    2.9071    0.1470    0.0555 C   0  0  0  0  0  0  0  0  0  0  0  0
    2.5819   -0.0770   -1.1025 O   0  0  0  0  0  0  0  0  0  0  0  0
    4.0849    0.6941    0.4969 N   0  0  0  0  0  0  0  0  0  0  0  0
    5.1928    1.1143   -0.2576 C   0  0  0  0  0  0  0  0  0  0  0  0
    6.2880    1.6310    0.4468 C   0  0  0  0  0  0  0  0  0  0  0  0
    7.4278    2.0719   -0.2306 C   0  0  0  0  0  0  0  0  0  0  0  0
    7.4826    2.0001   -1.6197 C   0  0  0  0  0  0  0  0  0  0  0  0
    6.3985    1.4876   -2.3284 C   0  0  0  0  0  0  0  0  0  0  0  0
    5.2574    1.0462   -1.6504 C   0  0  0  0  0  0  0  0  0  0  0  0
   -2.6977    0.0862    0.0933 C   0  0  0  0  0  0  0  0  0  0  0  0
   -3.4996   -0.6021   -0.8655 O   0  0  0  0  0  0  0  0  0  0  0  0
   -4.4976    0.2503   -1.4128 C   0  0  0  0  0  0  0  0  0  0  0  0
   -5.4994    0.7251   -0.3924 C   0  0  0  0  0  0  0  0  0  0  0  0
   -5.1915    0.8215    0.9731 C   0  0  0  0  0  0  0  0  0  0  0  0
   -3.6072    0.3546    1.6451 S   0  0  0  0  0  0  0  0  0  0  0  0
   -6.1610    1.2921    1.8700 C   0  0  0  0  0  0  0  0  0  0  0  0
   -7.4223    1.6809    1.4179 C   0  0  0  0  0  0  0  0  0  0  0  0
   -7.7263    1.6032    0.0632 C   0  0  0  0  0  0  0  0  0  0  0  0
   -6.7707    1.1320   -0.8368 C   0  0  0  0  0  0  0  0  0  0  0  0
    1.5700   -4.7205    1.6853 H   0  0  0  0  0  0  0  0  0  0  0  0
    3.2341   -4.5104    1.1291 H   0  0  0  0  0  0  0  0  0  0  0  0
    1.9340   -4.4796   -0.0683 H   0  0  0  0  0  0  0  0  0  0  0  0
   -0.3330   -3.9308    0.5942 H   0  0  0  0  0  0  0  0  0  0  0  0
   -2.3597   -2.6554    0.1516 H   0  0  0  0  0  0  0  0  0  0  0  0
   -0.1851    1.0370    0.6596 H   0  0  0  0  0  0  0  0  0  0  0  0
    4.1398    0.7747    1.5022 H   0  0  0  0  0  0  0  0  0  0  0  0
    6.2706    1.6972    1.5315 H   0  0  0  0  0  0  0  0  0  0  0  0
    8.2716    2.4704    0.3266 H   0  0  0  0  0  0  0  0  0  0  0  0
    8.3675    2.3414   -2.1504 H   0  0  0  0  0  0  0  0  0  0  0  0
    6.4361    1.4280   -3.4133 H   0  0  0  0  0  0  0  0  0  0  0  0
    4.4364    0.6529   -2.2420 H   0  0  0  0  0  0  0  0  0  0  0  0
   -2.4060    1.0603   -0.3213 H   0  0  0  0  0  0  0  0  0  0  0  0
   -5.0135   -0.3365   -2.1810 H   0  0  0  0  0  0  0  0  0  0  0  0
   -4.0292    1.1074   -1.9118 H   0  0  0  0  0  0  0  0  0  0  0  0
   -5.9391    1.3603    2.9331 H   0  0  0  0  0  0  0  0  0  0  0  0
   -8.1641    2.0440    2.1245 H   0  0  0  0  0  0  0  0  0  0  0  0
   -8.7073    1.9077   -0.2930 H   0  0  0  0  0  0  0  0  0  0  0  0
   -7.0252    1.0783   -1.8938 H   0  0  0  0  0  0  0  0  0  0  0  0
  1  2  1  0
  2  3  1  0
  3  4  2  0
  4  5  1  0
  5  6  2  0
  6  7  1  0
  7  8  2  0
  8  9  1  0
  9 10  1  0
 10 11  2  0
 10 12  1  0
 12 13  1  0
 13 14  2  0
 14 15  1  0
 15 16  2  0
 16 17  1  0
 17 18  2  0
  6 19  1  0
 19 20  1  0
 20 21  1  0
 21 22  1  0
 22 23  2  0
 23 24  1  0
 23 25  1  0
 25 26  2  0
 26 27  1  0
 27 28  2  0
  8  3  1  0
 18 13  1  0
 24 19  1  0
 28 22  1  0
  1 29  1  0
  1 30  1  0
  1 31  1  0
  4 32  1  0
  5 33  1  0
  7 34  1  0
 12 35  1  0
 14 36  1  0
 15 37  1  0
 16 38  1  0
 17 39  1  0
 18 40  1  0
 19 41  1  0
 21 42  1  0
 21 43  1  0
 25 44  1  0
 26 45  1  0
 27 46  1  0
 28 47  1  0
M  END
