
     RDKit          3D

 49 52  0  0  0  0  0  0  0  0999 V2000
    1.1600    0.6323   -4.6603 C   0  0  0  0  0  0  0  0  0  0  0  0
    1.2656   -0.0257   -3.4044 O   0  0  0  0  0  0  0  0  0  0  0  0
    0.1784    0.0457   -2.5753 C   0  0  0  0  0  0  0  0  0  0  0  0
   -1.0606    0.5932   -2.9045 C   0  0  0  0  0  0  0  0  0  0  0  0
   -2.1070    0.5899   -1.9705 C   0  0  0  0  0  0  0  0  0  0  0  0
   -1.9396    0.0436   -0.6859 C   0  0  0  0  0  0  0  0  0  0  0  0
   -0.6976   -0.5202   -0.3612 C   0  0  0  0  0  0  0  0  0  0  0  0
    0.3403   -0.4981   -1.2955 C   0  0  0  0  0  0  0  0  0  0  0  0
    1.5544   -1.1054   -0.9531 O   0  0  0  0  0  0  0  0  0  0  0  0
    2.4750   -0.2189   -0.4099 C   0  0  0  0  0  0  0  0  0  0  0  0
    2.2374    0.9389   -0.0940 O   0  0  0  0  0  0  0  0  0  0  0  0
    3.6678   -0.8844   -0.2787 N   0  0  0  0  0  0  0  0  0  0  0  0
    4.8851   -0.4070    0.2321 C   0  0  0  0  0  0  0  0  0  0  0  0
    5.0611    0.8814    0.7466 C   0  0  0  0  0  0  0  0  0  0  0  0
    6.3071    1.2882    1.2402 C   0  0  0  0  0  0  0  0  0  0  0  0
    7.3855    0.3973    1.2175 C   0  0  0  0  0  0  0  0  0  0  0  0
    7.2233   -0.8956    0.7079 C   0  0  0  0  0  0  0  0  0  0  0  0
    5.9730   -1.2910    0.2199 C   0  0  0  0  0  0  0  0  0  0  0  0
    8.6946    0.8202    1.7295 N   0  0  0  0  0  4  0  0  0  0  0  0
    8.7774    1.9432    2.2462 O   0  0  0  0  0  1  0  0  0  0  0  0
    9.6408    0.0278    1.6143 O   0  0  0  0  0  0  0  0  0  0  0  0
   -3.0714    0.0215    0.3262 C   0  0  0  0  0  0  0  0  0  0  0  0
   -3.9164    1.1526    0.1220 O   0  0  0  0  0  0  0  0  0  0  0  0
   -4.7545    1.3845    1.2476 C   0  0  0  0  0  0  0  0  0  0  0  0
   -5.7147    0.2567    1.5235 C   0  0  0  0  0  0  0  0  0  0  0  0
   -5.4640   -1.0615    1.1135 C   0  0  0  0  0  0  0  0  0  0  0  0
   -4.0094   -1.5307    0.1953 S   0  0  0  0  0  0  0  0  0  0  0  0
   -6.3881   -2.0702    1.4200 C   0  0  0  0  0  0  0  0  0  0  0  0
   -7.5449   -1.7816    2.1439 C   0  0  0  0  0  0  0  0  0  0  0  0
   -7.7890   -0.4801    2.5681 C   0  0  0  0  0  0  0  0  0  0  0  0
   -6.8794    0.5319    2.2627 C   0  0  0  0  0  0  0  0  0  0  0  0
    0.4017    0.1563   -5.2907 H   0  0  0  0  0  0  0  0  0  0  0  0
    2.1236    0.5358   -5.1699 H   0  0  0  0  0  0  0  0  0  0  0  0
    0.9564    1.7011   -4.5334 H   0  0  0  0  0  0  0  0  0  0  0  0
   -1.2562    1.0255   -3.8801 H   0  0  0  0  0  0  0  0  0  0  0  0
   -3.0672    1.0192   -2.2546 H   0  0  0  0  0  0  0  0  0  0  0  0
   -0.5315   -0.9732    0.6121 H   0  0  0  0  0  0  0  0  0  0  0  0
    3.6368   -1.8311   -0.6325 H   0  0  0  0  0  0  0  0  0  0  0  0
    4.2462    1.5998    0.7774 H   0  0  0  0  0  0  0  0  0  0  0  0
    6.4133    2.2978    1.6327 H   0  0  0  0  0  0  0  0  0  0  0  0
    8.0496   -1.6030    0.6855 H   0  0  0  0  0  0  0  0  0  0  0  0
    5.8643   -2.2998   -0.1724 H   0  0  0  0  0  0  0  0  0  0  0  0
   -2.6261    0.0873    1.3281 H   0  0  0  0  0  0  0  0  0  0  0  0
   -4.1427    1.5861    2.1352 H   0  0  0  0  0  0  0  0  0  0  0  0
   -5.3214    2.2950    1.0245 H   0  0  0  0  0  0  0  0  0  0  0  0
   -6.2112   -3.0938    1.0969 H   0  0  0  0  0  0  0  0  0  0  0  0
   -8.2518   -2.5740    2.3759 H   0  0  0  0  0  0  0  0  0  0  0  0
   -8.6877   -0.2522    3.1354 H   0  0  0  0  0  0  0  0  0  0  0  0
   -7.0863    1.5448    2.6033 H   0  0  0  0  0  0  0  0  0  0  0  0
  1  2  1  0
  2  3  1  0
  3  4  2  0
  4  5  1  0
  5  6  2  0
  6  7  1  0
  7  8  2  0
  8  9  1  0
  9 10  1  0
 10 11  2  0
 10 12  1  0
 12 13  1  0
 13 14  2  0
 14 15  1  0
 15 16  2  0
 16 17  1  0
 17 18  2  0
 16 19  1  0
 19 20  1  0
 19 21  2  0
  6 22  1  0
 22 23  1  0
 23 24  1  0
 24 25  1  0
 25 26  2  0
 26 27  1  0
 26 28  1  0
 28 29  2  0
 29 30  1  0
 30 31  2  0
  8  3  1  0
 18 13  1  0
 27 22  1  0
 31 25  1  0
  1 32  1  0
  1 33  1  0
  1 34  1  0
  4 35  1  0
  5 36  1  0
  7 37  1  0
 12 38  1  0
 14 39  1  0
 15 40  1  0
 17 41  1  0
 18 42  1  0
 22 43  1  0
 24 44  1  0
 24 45  1  0
 28 46  1  0
 29 47  1  0
 30 48  1  0
 31 49  1  0
M  CHG  2  19   1  20  -1
M  END
