
     RDKit          3D

 49 52  0  0  0  0  0  0  0  0999 V2000
   -0.0289   -2.3213    6.6717 C   0  0  0  0  0  0  0  0  0  0  0  0
   -0.7214   -1.9958    5.4762 O   0  0  0  0  0  0  0  0  0  0  0  0
   -0.0061   -1.4182    4.4561 C   0  0  0  0  0  0  0  0  0  0  0  0
    1.3481   -1.0991    4.5298 C   0  0  0  0  0  0  0  0  0  0  0  0
    1.9894   -0.5086    3.4419 C   0  0  0  0  0  0  0  0  0  0  0  0
    1.2909   -0.2179    2.2545 C   0  0  0  0  0  0  0  0  0  0  0  0
   -0.0926   -0.5451    2.1601 C   0  0  0  0  0  0  0  0  0  0  0  0
   -0.7214   -1.1439    3.2712 C   0  0  0  0  0  0  0  0  0  0  0  0
   -2.0575   -1.4536    3.3042 O   0  0  0  0  0  0  0  0  0  0  0  0
   -0.7298   -0.2057    0.9364 N   0  0  0  0  0  0  0  0  0  0  0  0
   -1.9051   -0.6494    0.3836 C   0  0  0  0  0  0  0  0  0  0  0  0
   -2.6819   -1.4555    0.8793 O   0  0  0  0  0  0  0  0  0  0  0  0
   -2.1678   -0.1351   -0.9893 C   0  0  0  0  0  0  0  0  0  0  0  0
   -1.8735    1.1906   -1.3412 C   0  0  0  0  0  0  0  0  0  0  0  0
   -2.0557    1.6208   -2.6581 C   0  0  0  0  0  0  0  0  0  0  0  0
   -2.5395    0.7214   -3.6192 C   0  0  0  0  0  0  0  0  0  0  0  0
   -2.8708   -0.5942   -3.2651 C   0  0  0  0  0  0  0  0  0  0  0  0
   -2.6880   -1.0177   -1.9455 C   0  0  0  0  0  0  0  0  0  0  0  0
   -2.6870    1.1604   -5.0121 N   0  0  0  0  0  4  0  0  0  0  0  0
   -3.2052    0.3710   -5.8143 O   0  0  0  0  0  1  0  0  0  0  0  0
   -2.2747    2.2924   -5.3051 O   0  0  0  0  0  0  0  0  0  0  0  0
    2.0861    0.3869    1.0982 C   0  0  0  0  0  0  0  0  0  0  0  0
    1.3539    1.5160    0.6050 O   0  0  0  0  0  0  0  0  0  0  0  0
    2.0640    2.1983   -0.4224 C   0  0  0  0  0  0  0  0  0  0  0  0
    1.9402    1.4120   -1.6923 C   0  0  0  0  0  0  0  0  0  0  0  0
    2.0878    0.0186   -1.6770 C   0  0  0  0  0  0  0  0  0  0  0  0
    2.4086   -0.8913   -0.1773 S   0  0  0  0  0  0  0  0  0  0  0  0
    1.9707   -0.7005   -2.8724 C   0  0  0  0  0  0  0  0  0  0  0  0
    1.7132   -0.0415   -4.0753 C   0  0  0  0  0  0  0  0  0  0  0  0
    1.5783    1.3433   -4.0939 C   0  0  0  0  0  0  0  0  0  0  0  0
    1.6982    2.0688   -2.9096 C   0  0  0  0  0  0  0  0  0  0  0  0
    0.3667   -1.4225    7.1564 H   0  0  0  0  0  0  0  0  0  0  0  0
    0.7648   -3.0518    6.4828 H   0  0  0  0  0  0  0  0  0  0  0  0
   -0.7455   -2.7806    7.3594 H   0  0  0  0  0  0  0  0  0  0  0  0
    1.9346   -1.2982    5.4204 H   0  0  0  0  0  0  0  0  0  0  0  0
    3.0507   -0.2817    3.5284 H   0  0  0  0  0  0  0  0  0  0  0  0
   -2.3861   -1.5352    2.3866 H   0  0  0  0  0  0  0  0  0  0  0  0
   -0.1469    0.3550    0.3216 H   0  0  0  0  0  0  0  0  0  0  0  0
   -1.5038    1.8964   -0.5996 H   0  0  0  0  0  0  0  0  0  0  0  0
   -1.8090    2.6483   -2.9190 H   0  0  0  0  0  0  0  0  0  0  0  0
   -3.2570   -1.2996   -3.9989 H   0  0  0  0  0  0  0  0  0  0  0  0
   -2.9292   -2.0432   -1.6674 H   0  0  0  0  0  0  0  0  0  0  0  0
    3.0535    0.7471    1.4690 H   0  0  0  0  0  0  0  0  0  0  0  0
    1.5878    3.1781   -0.5353 H   0  0  0  0  0  0  0  0  0  0  0  0
    3.1133    2.3647   -0.1516 H   0  0  0  0  0  0  0  0  0  0  0  0
    2.0792   -1.7834   -2.8770 H   0  0  0  0  0  0  0  0  0  0  0  0
    1.6261   -0.6099   -4.9978 H   0  0  0  0  0  0  0  0  0  0  0  0
    1.3840    1.8589   -5.0324 H   0  0  0  0  0  0  0  0  0  0  0  0
    1.5946    3.1516   -2.9436 H   0  0  0  0  0  0  0  0  0  0  0  0
  1  2  1  0
  2  3  1  0
  3  4  2  0
  4  5  1  0
  5  6  2  0
  6  7  1  0
  7  8  2  0
  8  9  1  0
  7 10  1  0
 10 11  1  0
 11 12  2  0
 11 13  1  0
 13 14  2  0
 14 15  1  0
 15 16  2  0
 16 17  1  0
 17 18  2  0
 16 19  1  0
 19 20  1  0
 19 21  2  0
  6 22  1  0
 22 23  1  0
 23 24  1  0
 24 25  1  0
 25 26  2  0
 26 27  1  0
 26 28  1  0
 28 29  2  0
 29 30  1  0
 30 31  2  0
  8  3  1  0
 18 13  1  0
 27 22  1  0
 31 25  1  0
  1 32  1  0
  1 33  1  0
  1 34  1  0
  4 35  1  0
  5 36  1  0
  9 37  1  0
 10 38  1  0
 14 39  1  0
 15 40  1  0
 17 41  1  0
 18 42  1  0
 22 43  1  0
 24 44  1  0
 24 45  1  0
 28 46  1  0
 29 47  1  0
 30 48  1  0
 31 49  1  0
M  CHG  2  19   1  20  -1
M  END
