
     RDKit          3D

 15 14  0  0  0  0  0  0  0  0999 V2000
   -2.0349   -0.6919   -0.1258 C   0  0  0  0  0  0  0  0  0  0  0  0
   -0.6489   -0.1780    0.0590 C   0  0  0  0  0  0  0  0  0  0  0  0
   -0.3049    1.1115   -0.0207 C   0  0  0  0  0  0  0  0  0  0  0  0
    1.0898    1.5744    0.2261 C   0  0  0  0  0  0  0  0  0  0  0  0
    1.2812    2.7898    0.1506 O   0  0  0  0  0  0  0  0  0  0  0  0
    1.9982    0.6836    0.6164 N   0  0  0  0  0  2  0  0  0  0  0  0
    1.8808   -0.7965    0.0619 S   0  0  0  0  0  6  0  0  0  0  0  0
    2.0599   -0.9464   -1.3812 O   0  0  0  0  0  0  0  0  0  0  0  0
    2.5897   -1.7948    0.8604 O   0  0  0  0  0  0  0  0  0  0  0  0
    0.2970   -1.1484    0.3151 O   0  0  0  0  0  0  0  0  0  0  0  0
    0.0000    0.0000    0.0000 K   0  0  0  0  0 15  0  0  0  0  0  0
   -2.3698   -1.2122    0.7772 H   0  0  0  0  0  0  0  0  0  0  0  0
   -2.0696   -1.3963   -0.9630 H   0  0  0  0  0  0  0  0  0  0  0  0
   -2.7466    0.1137   -0.3339 H   0  0  0  0  0  0  0  0  0  0  0  0
   -1.0221    1.8916   -0.2421 H   0  0  0  0  0  0  0  0  0  0  0  0
  1  2  1  0
  2  3  2  0
  3  4  1  0
  4  5  2  0
  4  6  1  0
  6  7  1  0
  7  8  2  0
  7  9  2  0
  7 10  1  0
 10  2  1  0
  1 12  1  0
  1 13  1  0
  1 14  1  0
  3 15  1  0
M  CHG  2   6  -1  11   1
M  END
